@<TRIPOS>MOLECULE
*****
 123 128 0 0 0
SMALL
GASTEIGER

@<TRIPOS>ATOM
     1 C         5.167229   1.748835   0.490422 C.3        1 UNL1     0.0009
     2 C         6.603645   2.555305   -0.360079 C.2        1 UNL1     -0.0787
     3 C         7.885319   2.457402   -1.026241 C.2        1 UNL1     -0.0649
     4 C         8.76252   3.692842   -1.781598 C.2        1 UNL1     -0.0542
     5 C         9.782253   3.985879   -2.720401 C.2        1 UNL1     0.0115
     6 C         10.910192   3.360798   -3.58663 C.3        1 UNL1     -0.0348
     7 C         9.877388   5.469382   -3.326337 C.2        1 UNL1     0.2441
     8 O         10.701379   6.290886   -2.948585 O.2        1 UNL1     -0.2702
     9 N         9.126803   5.676813   -4.496698 N.am        1 UNL1     -0.2772
     10 C         7.844181   6.063353   -4.182392 C.2        1 UNL1     0.1049
     11 C         6.998496   5.091812   -3.890589 C.2        1 UNL1     0.0801
     12 C         6.546205   7.669419   -2.770604 C.ar        1 UNL1     0.0753
     13 C         5.787298   6.541314   -2.323336 C.ar        1 UNL1     0.0305
     14 C         5.904045   5.235876   -2.969286 C.2        1 UNL1     0.0924
     15 N         7.121082   3.7629   -4.050253 N.pl3        1 UNL1     -0.3170
     16 C         5.851326   3.163589   -3.735927 C.3        1 UNL1     0.1275
     17 N         5.215218   4.11842   -2.755424 N.2        1 UNL1     -0.2557
     18 C         4.998088   3.22316   -4.99931 C.3        1 UNL1     0.0016
     19 C         5.752628   2.539532   -6.12843 C.3        1 UNL1     0.0026
     20 N         6.022905   1.161277   -5.743211 N.3        1 UNL1     -0.3018
     21 C         6.786646   1.000392   -4.504185 C.3        1 UNL1     0.0026
     22 C         6.008239   1.69045   -3.38267 C.3        1 UNL1     0.0016
     23 C         6.467078   0.342193   -6.85337 C.3        1 UNL1     0.0012
     24 C         5.311333   0.0931   -7.835186 C.3        1 UNL1     -0.0339
     25 C         5.346667   1.085722   -9.008859 C.3        1 UNL1     -0.0615
     26 C         5.340301   -1.346202   -8.319282 C.3        1 UNL1     -0.0615
     27 C         6.341698   8.936893   -2.230414 C.ar        1 UNL1     0.1347
     28 C         5.382933   9.206044   -1.270009 C.ar        1 UNL1     0.0342
     29 C         4.681527   8.071401   -0.809815 C.ar        1 UNL1     0.1435
     30 C         4.900827   6.789579   -1.31584 C.ar        1 UNL1     0.0774
     31 O         3.640799   8.184613   0.044044 O.3        1 UNL1     -0.4436
     32 C         2.919091   6.951842   -0.098386 C.3        1 UNL1     0.3143
     33 C         3.932233   5.958961   -0.631249 C.2        1 UNL1     0.2504
     34 C         4.936217   10.571967   -0.828647 C.3        1 UNL1     -0.0327
     35 O         2.558871   6.514613   1.217792 O.2        1 UNL1     -0.4528
     36 C         -0.684278   4.582549   0.821307 C.3        1 UNL1     0.0854
     37 C         -0.989852   3.322318   -0.07645 C.3        1 UNL1     0.0236
     38 C         -1.590146   2.060955   0.711176 C.3        1 UNL1     0.1131
     39 C         -0.863971   1.529512   2.012141 C.3        1 UNL1     0.0200
     40 C         0.797235   1.383969   2.052726 C.3        1 UNL1     0.0661
     41 C         1.756243   0.615612   0.883307 C.3        1 UNL1     0.0091
     42 C         3.463648   0.97841   0.318905 C.3        1 UNL1     0.0661
     43 C         7.495895   7.46217   -3.891941 C.2        1 UNL1     0.2131
     44 O         7.895541   8.360535   -4.610244 O.2        1 UNL1     -0.2851
     45 O         7.153808   9.97219   -2.688754 O.3        1 UNL1     -0.5056
     46 O         3.948276   4.755376   -0.50095 O.2        1 UNL1     -0.2836
     47 C         5.564053   1.318798   1.92833 C.3        1 UNL1     -0.0566
     48 O         3.912252   -0.432722   0.399995 O.3        1 UNL1     -0.3909
     49 C         0.921663   0.383499   -0.356489 C.3        1 UNL1     -0.0577
     50 O         1.397547   2.601684   2.445817 O.3        1 UNL1     -0.3910
     51 O         -0.807921   4.39233   2.212694 O.3        1 UNL1     -0.3753
     52 C         0.054236   3.162307   -1.229369 C.3        1 UNL1     -0.0564
     53 O         -2.193026   1.022316   -0.188875 O.3        1 UNL1     -0.4608
     54 C         -2.427316   -0.28457   0.15037 C.2        1 UNL1     0.3042
     55 O         -1.858349   -1.283524   -0.288042 O.2        1 UNL1     -0.2512
     56 C         -3.46699   -0.45064   1.221916 C.3        1 UNL1     0.0332
     57 C         -1.584602   2.198009   3.273877 C.3        1 UNL1     -0.0567
     58 C         1.843546   7.197344   -1.182112 C.3        1 UNL1     0.0210
     59 C         -1.120891   5.571045   2.953333 C.3        1 UNL1     0.0372
     60 C         0.644638   5.211734   0.590508 C.2        1 UNL1     -0.0208
     61 C         1.557849   5.646638   1.459788 C.2        1 UNL1     0.0882
     62 H         4.691329   2.73297   0.578224 H        1 UNL1     0.0365
     63 H         6.337423   3.609061   -0.254282 H        1 UNL1     0.0576
     64 H         8.34291   1.490642   -1.247809 H        1 UNL1     0.0615
     65 H         8.275543   4.608101   -1.43427 H        1 UNL1     0.0622
     66 H         -1.429034   5.32919   0.511612 H        1 UNL1     0.0645
     67 H         -1.855601   3.631912   -0.687344 H        1 UNL1     0.0362
     68 H         -2.537105   2.497688   1.063388 H        1 UNL1     0.0741
     69 H         -1.195423   0.518337   2.207261 H        1 UNL1     0.0359
     70 H         0.909301   0.723301   2.933646 H        1 UNL1     0.0600
     71 H         1.799972   -0.405717   1.309842 H        1 UNL1     0.0348
     72 H         3.358081   1.466239   1.2988 H        1 UNL1     0.0602
     73 H         0.762195   5.409381   -0.446008 H        1 UNL1     0.0628
     74 H         1.540653   5.435564   2.52955 H        1 UNL1     0.1022
     75 H         10.95473   2.255461   -3.43405 H        1 UNL1     0.0279
     76 H         10.796207   3.443999   -4.665126 H        1 UNL1     0.0279
     77 H         11.915371   3.665384   -3.260221 H        1 UNL1     0.0279
     78 H         9.064637   4.807065   -5.021817 H        1 UNL1     0.1553
     79 H         7.786154   3.335149   -4.668025 H        1 UNL1     0.1484
     80 H         4.036873   2.732146   -4.805048 H        1 UNL1     0.0317
     81 H         4.771384   4.260014   -5.269844 H        1 UNL1     0.0317
     82 H         6.683207   3.070934   -6.376518 H        1 UNL1     0.0428
     83 H         5.127184   2.59501   -7.019941 H        1 UNL1     0.0428
     84 H         6.907073   -0.042677   -4.195452 H        1 UNL1     0.0428
     85 H         7.816702   1.368471   -4.608201 H        1 UNL1     0.0428
     86 H         6.524961   1.439746   -2.474852 H        1 UNL1     0.0317
     87 H         5.028838   1.21276   -3.257441 H        1 UNL1     0.0317
     88 H         7.262965   0.884194   -7.380715 H        1 UNL1     0.0429
     89 H         6.899794   -0.60371   -6.502944 H        1 UNL1     0.0429
     90 H         4.358472   0.211968   -7.305902 H        1 UNL1     0.0308
     91 H         6.299662   1.035153   -9.543972 H        1 UNL1     0.0233
     92 H         4.531548   0.886007   -9.708362 H        1 UNL1     0.0233
     93 H         5.220638   2.124706   -8.681045 H        1 UNL1     0.0233
     94 H         4.645539   -1.477358   -9.155907 H        1 UNL1     0.0233
     95 H         6.343694   -1.601964   -8.671064 H        1 UNL1     0.0233
     96 H         5.057635   -2.040726   -7.523226 H        1 UNL1     0.0233
     97 H         4.136826   10.52204   -0.095359 H        1 UNL1     0.0280
     98 H         5.746699   11.138353   -0.351591 H        1 UNL1     0.0280
     99 H         4.571058   11.140203   -1.699773 H        1 UNL1     0.0280
     100 H         6.686679   10.723442   -3.009742 H        1 UNL1     0.2922
     101 H         4.701409   0.884962   2.433591 H        1 UNL1     0.0236
     102 H         6.015017   2.123929   2.507449 H        1 UNL1     0.0236
     103 H         6.320308   0.516135   1.926681 H        1 UNL1     0.0236
     104 H         4.331757   -0.559127   1.273498 H        1 UNL1     0.2098
     105 H         0.708662   1.28257   -0.929301 H        1 UNL1     0.0234
     106 H         1.290947   -0.404147   -1.013125 H        1 UNL1     0.0234
     107 H         0.0   -0.0   0.0 H        1 UNL1     0.0234
     108 H         1.199362   3.260009   1.752204 H        1 UNL1     0.2098
     109 H         1.079197   3.048699   -0.849554 H        1 UNL1     0.0234
     110 H         -0.178422   2.335458   -1.909027 H        1 UNL1     0.0234
     111 H         0.075205   4.045364   -1.881839 H        1 UNL1     0.0234
     112 H         -3.599269   -1.512471   1.450746 H        1 UNL1     0.0342
     113 H         -3.223579   0.115192   2.11993 H        1 UNL1     0.0342
     114 H         -4.421764   -0.067841   0.835866 H        1 UNL1     0.0342
     115 H         -2.654211   1.949708   3.312242 H        1 UNL1     0.0234
     116 H         -1.147825   1.917896   4.234508 H        1 UNL1     0.0234
     117 H         -1.623227   3.299883   3.225672 H        1 UNL1     0.0234
     118 H         0.942604   7.684088   -0.769329 H        1 UNL1     0.0309
     119 H         2.21263   7.785646   -2.028209 H        1 UNL1     0.0309
     120 H         1.454845   6.265539   -1.607266 H        1 UNL1     0.0309
     121 H         -0.299895   6.27427   2.816237 H        1 UNL1     0.0524
     122 H         -2.040811   6.060212   2.592086 H        1 UNL1     0.0524
     123 H         -1.238513   5.332912   4.006686 H        1 UNL1     0.0524
@<TRIPOS>BOND
     1     1     2    1
     2     1    42    1
     3     2     3    2
     4     3     4    1
     5     4     5    2
     6     5     7    1
     7     6    75    1
     8     6    76    1
     9     6    77    1
    10     7     9   am
    11     9    10    1
    12    10    11    2
    13    10    43    1
    14    11    14    1
    15    11    15    1
    16    12    13   ar
    17    12    27   ar
    18    12    43    1
    19    13    14    1
    20    13    30   ar
    21    14    17    2
    22    15    16    1
    23    16    17    1
    24    16    18    1
    25    16    22    1
    26    18    19    1
    27    19    20    1
    28    20    21    1
    29    21    22    1
    30    23    24    1
    31    23    88    1
    32    23    89    1
    33    24    25    1
    34    24    26    1
    35    24    90    1
    36    25    91    1
    37    25    92    1
    38    25    93    1
    39    26    94    1
    40    26    95    1
    41    26    96    1
    42    27    28   ar
    43    28    29   ar
    44    29    30   ar
    45    29    31    1
    46    30    33    1
    47    31    32    1
    48    32    33    1
    49    32    35    1
    50    34    97    1
    51    34    98    1
    52    34    99    1
    53    35    61    1
    54    36    37    1
    55    36    60    1
    56    37    38    1
    57    38    39    1
    58    39    40    1
    59    40    41    1
    60    41    42    1
    61    45   100    1
    62    47   101    1
    63    47   102    1
    64    47   103    1
    65    48   104    1
    66    49   105    1
    67    49   106    1
    68    49   107    1
    69    50   108    1
    70    51    59    1
    71    52   109    1
    72    52   110    1
    73    52   111    1
    74    53    54    1
    75    54    55    2
    76    54    56    1
    77    56   112    1
    78    56   113    1
    79    56   114    1
    80    57   115    1
    81    57   116    1
    82    57   117    1
    83    58   118    1
    84    58   119    1
    85    58   120    1
    86    59   121    1
    87    59   122    1
    88    59   123    1
    89    60    61    2
    90     1    47    1
    91     1    62    1
    92     2    63    1
    93     3    64    1
    94     4    65    1
    95     5     6    1
    96     7     8    2
    97     9    78    1
    98    15    79    1
    99    18    80    1
   100    18    81    1
   101    19    82    1
   102    19    83    1
   103    20    23    1
   104    21    84    1
   105    21    85    1
   106    22    86    1
   107    22    87    1
   108    27    45    1
   109    28    34    1
   110    32    58    1
   111    33    46    2
   112    36    51    1
   113    36    66    1
   114    37    52    1
   115    37    67    1
   116    38    53    1
   117    38    68    1
   118    42    48    1
   119    42    72    1
   120    43    44    2
   121    60    73    1
   122    61    74    1
   123    39    69    1
   124    39    57    1
   125    40    70    1
   126    40    50    1
   127    41    71    1
   128    41    49    1
