@<TRIPOS>MOLECULE
*****
 123 128 0 0 0
SMALL
GASTEIGER

@<TRIPOS>ATOM
     1 C         4.677859   -0.438814   1.036145 C.3        1 UNL1     0.0009
     2 C         6.231421   -0.157226   0.064449 C.2        1 UNL1     -0.0787
     3 C         7.438033   -0.668441   -0.551011 C.2        1 UNL1     -0.0649
     4 C         8.545361   0.16692   -1.52176 C.2        1 UNL1     -0.0542
     5 C         9.575688   0.034754   -2.485106 C.2        1 UNL1     0.0115
     6 C         10.508788   -0.984194   -3.195313 C.3        1 UNL1     -0.0348
     7 C         9.980943   1.311814   -3.369343 C.2        1 UNL1     0.2441
     8 O         10.97858   1.984515   -3.148614 O.2        1 UNL1     -0.2702
     9 N         9.260274   1.450708   -4.568299 N.am        1 UNL1     -0.2772
     10 C         8.106425   2.16922   -4.354534 C.2        1 UNL1     0.1049
     11 C         7.074569   1.488494   -3.889661 C.2        1 UNL1     0.0801
     12 C         7.243167   4.26921   -3.304695 C.ar        1 UNL1     0.0753
     13 C         6.26566   3.449764   -2.65539 C.ar        1 UNL1     0.0305
     14 C         6.068443   2.051376   -3.030446 C.2        1 UNL1     0.0924
     15 N         6.892615   0.161052   -3.783269 N.pl3        1 UNL1     -0.3170
     16 C         5.531325   -0.064587   -3.375555 C.3        1 UNL1     0.1275
     17 N         5.154481   1.180908   -2.611058 N.2        1 UNL1     -0.2557
     18 C         4.674813   -0.061904   -4.638125 C.3        1 UNL1     0.0016
     19 C         5.223035   -1.104011   -5.599923 C.3        1 UNL1     0.0026
     20 N         5.190566   -2.405678   -4.947513 N.3        1 UNL1     -0.3018
     21 C         5.93653   -2.48972   -3.690198 C.3        1 UNL1     0.0026
     22 C         5.366258   -1.43759   -2.737461 C.3        1 UNL1     0.0016
     23 C         5.406746   -3.50367   -5.868558 C.3        1 UNL1     0.0012
     24 C         5.091972   -3.068718   -7.30852 C.3        1 UNL1     -0.0339
     25 C         6.362974   -3.022213   -8.172493 C.3        1 UNL1     -0.0615
     26 C         4.039874   -3.98372   -7.910718 C.3        1 UNL1     -0.0615
     27 C         7.343186   5.630484   -3.027125 C.ar        1 UNL1     0.1347
     28 C         6.498363   6.289914   -2.152209 C.ar        1 UNL1     0.0342
     29 C         5.575814   5.453819   -1.488122 C.ar        1 UNL1     0.1435
     30 C         5.488048   4.082172   -1.729165 C.ar        1 UNL1     0.0774
     31 O         4.613092   5.962041   -0.688194 O.3        1 UNL1     -0.4436
     32 C         3.63051   4.9195   -0.595921 C.3        1 UNL1     0.3143
     33 C         4.379848   3.640087   -0.908664 C.2        1 UNL1     0.2504
     34 C         6.381352   7.78038   -1.994354 C.3        1 UNL1     -0.0327
     35 O         3.222075   4.839239   0.775206 O.2        1 UNL1     -0.4528
     36 C         -0.380951   3.646258   0.719634 C.3        1 UNL1     0.0854
     37 C         -0.987224   2.336927   0.082761 C.3        1 UNL1     0.0236
     38 C         -1.829559   1.420863   1.094217 C.3        1 UNL1     0.1131
     39 C         -1.200994   1.003525   2.484542 C.3        1 UNL1     0.0200
     40 C         0.3863   0.499115   2.576784 C.3        1 UNL1     0.0661
     41 C         1.113602   -0.677688   1.595063 C.3        1 UNL1     0.0091
     42 C         2.840907   -0.82491   0.994941 C.3        1 UNL1     0.0661
     43 C         8.088059   3.639591   -4.349682 C.2        1 UNL1     0.2131
     44 O         8.656015   4.267666   -5.224717 O.2        1 UNL1     -0.2851
     45 O         8.351484   6.347207   -3.668281 O.3        1 UNL1     -0.5056
     46 O         4.130886   2.512699   -0.544153 O.2        1 UNL1     -0.2836
     47 C         5.012333   -0.658652   2.536071 C.3        1 UNL1     -0.0566
     48 O         2.965584   -2.257254   1.358206 O.3        1 UNL1     -0.3909
     49 C         0.210904   -0.953099   0.41321 C.3        1 UNL1     -0.0577
     50 O         1.254879   1.603363   2.731473 O.3        1 UNL1     -0.3910
     51 O         -0.501479   3.763308   2.11935 O.3        1 UNL1     -0.3753
     52 C         -0.04078   1.725046   -1.001118 C.3        1 UNL1     -0.0564
     53 O         -2.676126   0.389473   0.407277 O.3        1 UNL1     -0.4608
     54 C         -3.406853   -0.585482   1.034516 C.2        1 UNL1     0.3042
     55 O         -4.626774   -0.742149   1.001539 O.2        1 UNL1     -0.2512
     56 C         -2.565779   -1.577492   1.78633 C.3        1 UNL1     0.0332
     57 C         -1.715513   2.049382   3.579817 C.3        1 UNL1     -0.0567
     58 C         2.604364   5.184642   -1.722088 C.3        1 UNL1     0.0210
     59 C         0.469563   3.033301   2.867704 C.3        1 UNL1     0.0372
     60 C         1.04719   3.903384   0.388788 C.2        1 UNL1     -0.0208
     61 C         2.060464   4.282609   1.168666 C.2        1 UNL1     0.0882
     62 H         4.436454   0.62486   0.921984 H        1 UNL1     0.0365
     63 H         6.21039   0.9293   -0.042741 H        1 UNL1     0.0576
     64 H         7.661401   -1.737454   -0.571672 H        1 UNL1     0.0615
     65 H         8.285699   1.217847   -1.368106 H        1 UNL1     0.0622
     66 H         -0.949407   4.46622   0.258585 H        1 UNL1     0.0645
     67 H         -1.78026   2.708163   -0.589428 H        1 UNL1     0.0362
     68 H         -2.644013   2.119239   1.340098 H        1 UNL1     0.0741
     69 H         -1.743616   0.150563   2.869801 H        1 UNL1     0.0359
     70 H         0.374902   0.01464   3.571879 H        1 UNL1     0.0600
     71 H         0.941306   -1.579613   2.214582 H        1 UNL1     0.0348
     72 H         2.876753   -0.144652   1.858237 H        1 UNL1     0.0602
     73 H         1.174256   3.863881   -0.66456 H        1 UNL1     0.0628
     74 H         2.029198   4.29321   2.258688 H        1 UNL1     0.1022
     75 H         10.150588   -1.186242   -4.233534 H        1 UNL1     0.0279
     76 H         11.536563   -0.66826   -3.359424 H        1 UNL1     0.0279
     77 H         10.459332   -1.988491   -2.749619 H        1 UNL1     0.0279
     78 H         8.989638   0.532038   -4.913086 H        1 UNL1     0.1553
     79 H         7.426338   -0.517093   -4.295316 H        1 UNL1     0.1484
     80 H         3.634646   -0.276862   -4.364974 H        1 UNL1     0.0317
     81 H         4.677051   0.926338   -5.110378 H        1 UNL1     0.0317
     82 H         6.240726   -0.854086   -5.934221 H        1 UNL1     0.0428
     83 H         4.59888   -1.084036   -6.493837 H        1 UNL1     0.0428
     84 H         5.830523   -3.452573   -3.180798 H        1 UNL1     0.0428
     85 H         7.019089   -2.390041   -3.849722 H        1 UNL1     0.0428
     86 H         5.841418   -1.616352   -1.790754 H        1 UNL1     0.0317
     87 H         4.309242   -1.649178   -2.53487 H        1 UNL1     0.0317
     88 H         6.464646   -3.792039   -5.813923 H        1 UNL1     0.0429
     89 H         4.818004   -4.385084   -5.583485 H        1 UNL1     0.0429
     90 H         4.644365   -2.067929   -7.291718 H        1 UNL1     0.0308
     91 H         7.138281   -3.684253   -7.775372 H        1 UNL1     0.0233
     92 H         6.140234   -3.308526   -9.203037 H        1 UNL1     0.0233
     93 H         6.797931   -2.016617   -8.221708 H        1 UNL1     0.0233
     94 H         3.862132   -3.716945   -8.958131 H        1 UNL1     0.0233
     95 H         4.385455   -5.020856   -7.880969 H        1 UNL1     0.0233
     96 H         3.091925   -3.91187   -7.370165 H        1 UNL1     0.0233
     97 H         7.306168   8.290664   -2.246458 H        1 UNL1     0.0280
     98 H         5.61348   8.207235   -2.652703 H        1 UNL1     0.0280
     99 H         6.127164   8.021982   -0.949312 H        1 UNL1     0.0280
     100 H         9.199874   5.941003   -3.639015 H        1 UNL1     0.2922
     101 H         4.698267   0.210271   3.11399 H        1 UNL1     0.0236
     102 H         6.058332   -0.909053   2.709766 H        1 UNL1     0.0236
     103 H         4.446328   -1.501124   2.967433 H        1 UNL1     0.0236
     104 H         3.254369   -2.300979   2.290763 H        1 UNL1     0.2098
     105 H         0.664075   -1.560702   -0.366063 H        1 UNL1     0.0234
     106 H         -0.772815   -1.343967   0.672913 H        1 UNL1     0.0234
     107 H         -0.0   0.0   0.0 H        1 UNL1     0.0234
     108 H         2.122879   1.252923   3.009927 H        1 UNL1     0.2098
     109 H         -0.544159   1.599544   -1.969916 H        1 UNL1     0.0234
     110 H         0.882402   2.298073   -1.139385 H        1 UNL1     0.0234
     111 H         0.307759   0.723652   -0.715323 H        1 UNL1     0.0234
     112 H         -3.014439   -1.780975   2.763389 H        1 UNL1     0.0342
     113 H         -2.418583   -2.498656   1.224517 H        1 UNL1     0.0342
     114 H         -1.576969   -1.12975   1.956469 H        1 UNL1     0.0342
     115 H         -2.215748   1.548113   4.419866 H        1 UNL1     0.0234
     116 H         -0.927483   2.680142   3.995991 H        1 UNL1     0.0234
     117 H         -2.521754   2.708368   3.214228 H        1 UNL1     0.0234
     118 H         1.964688   6.057479   -1.503052 H        1 UNL1     0.0309
     119 H         3.069168   5.318662   -2.704024 H        1 UNL1     0.0309
     120 H         1.884835   4.366512   -1.836313 H        1 UNL1     0.0309
     121 H         1.374594   3.638513   2.912338 H        1 UNL1     0.0524
     122 H         0.144211   2.845672   3.904516 H        1 UNL1     0.0524
     123 H         0.678042   2.082197   2.386006 H        1 UNL1     0.0524
@<TRIPOS>BOND
     1     1     2    1
     2     1    42    1
     3     2     3    2
     4     3     4    1
     5     4     5    2
     6     5     7    1
     7     6    75    1
     8     6    76    1
     9     6    77    1
    10     7     9   am
    11     9    10    1
    12    10    11    2
    13    10    43    1
    14    11    14    1
    15    11    15    1
    16    12    13   ar
    17    12    27   ar
    18    12    43    1
    19    13    14    1
    20    13    30   ar
    21    14    17    2
    22    15    16    1
    23    16    17    1
    24    16    18    1
    25    16    22    1
    26    18    19    1
    27    19    20    1
    28    20    21    1
    29    21    22    1
    30    23    24    1
    31    23    88    1
    32    23    89    1
    33    24    25    1
    34    24    26    1
    35    24    90    1
    36    25    91    1
    37    25    92    1
    38    25    93    1
    39    26    94    1
    40    26    95    1
    41    26    96    1
    42    27    28   ar
    43    28    29   ar
    44    29    30   ar
    45    29    31    1
    46    30    33    1
    47    31    32    1
    48    32    33    1
    49    32    35    1
    50    34    97    1
    51    34    98    1
    52    34    99    1
    53    35    61    1
    54    36    37    1
    55    36    60    1
    56    37    38    1
    57    38    39    1
    58    39    40    1
    59    40    41    1
    60    41    42    1
    61    45   100    1
    62    47   101    1
    63    47   102    1
    64    47   103    1
    65    48   104    1
    66    49   105    1
    67    49   106    1
    68    49   107    1
    69    50   108    1
    70    51    59    1
    71    52   109    1
    72    52   110    1
    73    52   111    1
    74    53    54    1
    75    54    55    2
    76    54    56    1
    77    56   112    1
    78    56   113    1
    79    56   114    1
    80    57   115    1
    81    57   116    1
    82    57   117    1
    83    58   118    1
    84    58   119    1
    85    58   120    1
    86    59   121    1
    87    59   122    1
    88    59   123    1
    89    60    61    2
    90     1    47    1
    91     1    62    1
    92     2    63    1
    93     3    64    1
    94     4    65    1
    95     5     6    1
    96     7     8    2
    97     9    78    1
    98    15    79    1
    99    18    80    1
   100    18    81    1
   101    19    82    1
   102    19    83    1
   103    20    23    1
   104    21    84    1
   105    21    85    1
   106    22    86    1
   107    22    87    1
   108    27    45    1
   109    28    34    1
   110    32    58    1
   111    33    46    2
   112    36    51    1
   113    36    66    1
   114    37    52    1
   115    37    67    1
   116    38    53    1
   117    38    68    1
   118    42    48    1
   119    42    72    1
   120    43    44    2
   121    60    73    1
   122    61    74    1
   123    39    69    1
   124    39    57    1
   125    40    70    1
   126    40    50    1
   127    41    71    1
   128    41    49    1
