@<TRIPOS>MOLECULE
*****
 123 128 0 0 0
SMALL
GASTEIGER

@<TRIPOS>ATOM
     1 C         5.166627   1.759658   0.456989 C.3        1 UNL1     0.0009
     2 C         6.596071   2.568422   -0.403027 C.2        1 UNL1     -0.0787
     3 C         7.873786   2.47264   -1.077058 C.2        1 UNL1     -0.0649
     4 C         8.743733   3.709296   -1.838788 C.2        1 UNL1     -0.0542
     5 C         9.757014   4.003701   -2.784127 C.2        1 UNL1     0.0115
     6 C         10.880841   3.380271   -3.656863 C.3        1 UNL1     -0.0348
     7 C         9.845327   5.486927   -3.391772 C.2        1 UNL1     0.2441
     8 O         10.66995   6.310417   -3.019769 O.2        1 UNL1     -0.2702
     9 N         9.087067   5.691906   -4.557609 N.am        1 UNL1     -0.2772
     10 C         7.805625   6.07605   -4.235641 C.2        1 UNL1     0.1049
     11 C         6.963773   5.102998   -3.937854 C.2        1 UNL1     0.0801
     12 C         6.513128   7.680536   -2.817048 C.ar        1 UNL1     0.0753
     13 C         5.759339   6.55122   -2.364218 C.ar        1 UNL1     0.0305
     14 C         5.874766   5.245524   -3.009885 C.2        1 UNL1     0.0924
     15 N         7.088106   3.774217   -4.097262 N.pl3        1 UNL1     -0.3170
     16 C         5.821564   3.172539   -3.774604 C.3        1 UNL1     0.1275
     17 N         5.189585   4.12682   -2.790899 N.2        1 UNL1     -0.2557
     18 C         4.96038   3.229375   -5.032711 C.3        1 UNL1     0.0016
     19 C         5.709306   2.546425   -6.165971 C.3        1 UNL1     0.0026
     20 N         5.98481   1.169029   -5.781386 N.3        1 UNL1     -0.3018
     21 C         6.756556   1.010676   -4.547003 C.3        1 UNL1     0.0026
     22 C         5.983702   1.700001   -3.421204 C.3        1 UNL1     0.0016
     23 C         6.423773   0.349999   -6.893656 C.3        1 UNL1     0.0012
     24 C         5.262472   0.097768   -7.868088 C.3        1 UNL1     -0.0339
     25 C         5.347694   1.020106   -9.095315 C.3        1 UNL1     -0.0615
     26 C         5.228945   -1.366385   -8.27047 C.3        1 UNL1     -0.0615
     27 C         6.309364   8.948006   -2.276567 C.ar        1 UNL1     0.1347
     28 C         5.356025   9.215928   -1.310433 C.ar        1 UNL1     0.0342
     29 C         4.659829   8.080202   -0.84503 C.ar        1 UNL1     0.1435
     30 C         4.878628   6.798442   -1.351428 C.ar        1 UNL1     0.0774
     31 O         3.624189   8.191935   0.015187 O.3        1 UNL1     -0.4436
     32 C         2.904155   6.957572   -0.12182 C.3        1 UNL1     0.3143
     33 C         3.916015   5.966364   -0.660204 C.2        1 UNL1     0.2504
     34 C         4.909241   10.581271   -0.867349 C.3        1 UNL1     -0.0327
     35 O         2.553012   6.520623   1.196902 O.2        1 UNL1     -0.4528
     36 C         -0.688544   4.581584   0.82203 C.3        1 UNL1     0.0854
     37 C         -0.997085   3.320032   -0.072851 C.3        1 UNL1     0.0236
     38 C         -1.589877   2.058048   0.719448 C.3        1 UNL1     0.1131
     39 C         -0.854548   1.529109   2.016285 C.3        1 UNL1     0.0200
     40 C         0.807175   1.387015   2.046668 C.3        1 UNL1     0.0661
     41 C         1.760489   0.619726   0.871904 C.3        1 UNL1     0.0091
     42 C         3.463607   0.985598   0.296638 C.3        1 UNL1     0.0661
     43 C         7.456265   7.474372   -3.944101 C.2        1 UNL1     0.2131
     44 O         7.849592   8.373001   -4.665557 O.2        1 UNL1     -0.2851
     45 O         7.116478   9.984615   -2.740728 O.3        1 UNL1     -0.5056
     46 O         3.935348   4.762916   -0.52909 O.2        1 UNL1     -0.2836
     47 C         5.573253   1.331554   1.892734 C.3        1 UNL1     -0.0566
     48 O         3.915614   -0.424545   0.376018 O.3        1 UNL1     -0.3909
     49 C         0.918712   0.384935   -0.36251 C.3        1 UNL1     -0.0577
     50 O         1.407403   2.606266   2.435096 O.3        1 UNL1     -0.3910
     51 O         -0.803157   4.39219   2.214303 O.3        1 UNL1     -0.3753
     52 C         0.040156   3.161275   -1.232107 C.3        1 UNL1     -0.0564
     53 O         -2.196189   1.017474   -0.176051 O.3        1 UNL1     -0.4608
     54 C         -2.394526   -0.297707   0.153937 C.2        1 UNL1     0.3042
     55 O         -1.812531   -1.279171   -0.306333 O.2        1 UNL1     -0.2512
     56 C         -3.408369   -0.497882   1.244242 C.3        1 UNL1     0.0332
     57 C         -1.568711   2.1971   3.28196 C.3        1 UNL1     -0.0567
     58 C         1.821401   7.200021   -1.199035 C.3        1 UNL1     0.0210
     59 C         -1.113955   5.570833   2.955971 C.3        1 UNL1     0.0372
     60 C         0.637614   5.213323   0.582506 C.2        1 UNL1     -0.0208
     61 C         1.555304   5.650778   1.445769 C.2        1 UNL1     0.0882
     62 H         4.689253   2.74288   0.546992 H        1 UNL1     0.0365
     63 H         6.328339   3.62171   -0.296383 H        1 UNL1     0.0576
     64 H         8.331985   1.506651   -1.300725 H        1 UNL1     0.0615
     65 H         8.257034   4.62382   -1.489141 H        1 UNL1     0.0622
     66 H         -1.436746   5.326452   0.516395 H        1 UNL1     0.0645
     67 H         -1.867244   3.627371   -0.678595 H        1 UNL1     0.0362
     68 H         -2.535531   2.493105   1.077199 H        1 UNL1     0.0741
     69 H         -1.182697   0.517406   2.21423 H        1 UNL1     0.0359
     70 H         0.926068   0.727262   2.927378 H        1 UNL1     0.0600
     71 H         1.80897   -0.40118   1.298939 H        1 UNL1     0.0348
     72 H         3.363117   1.473968   1.276797 H        1 UNL1     0.0602
     73 H         0.748328   5.410407   -0.454869 H        1 UNL1     0.0628
     74 H         1.545182   5.440499   2.515778 H        1 UNL1     0.1022
     75 H         10.909858   2.271708   -3.525404 H        1 UNL1     0.0279
     76 H         10.773389   3.485695   -4.734086 H        1 UNL1     0.0279
     77 H         11.888345   3.664995   -3.319865 H        1 UNL1     0.0279
     78 H         9.023436   4.821624   -5.081669 H        1 UNL1     0.1553
     79 H         7.750211   3.347356   -4.718824 H        1 UNL1     0.1484
     80 H         4.001404   2.736535   -4.832111 H        1 UNL1     0.0317
     81 H         4.729864   4.265551   -5.302623 H        1 UNL1     0.0317
     82 H         6.637229   3.079548   -6.420236 H        1 UNL1     0.0428
     83 H         5.078228   2.599926   -7.053624 H        1 UNL1     0.0428
     84 H         6.881047   -0.031903   -4.238228 H        1 UNL1     0.0428
     85 H         7.785185   1.380792   -4.657691 H        1 UNL1     0.0428
     86 H         6.506564   1.451064   -2.51642 H        1 UNL1     0.0317
     87 H         5.006085   1.220394   -3.289534 H        1 UNL1     0.0317
     88 H         7.215252   0.893228   -7.426344 H        1 UNL1     0.0429
     89 H         6.860605   -0.594739   -6.545202 H        1 UNL1     0.0429
     90 H         4.313522   0.288655   -7.353046 H        1 UNL1     0.0308
     91 H         6.299875   0.897009   -9.620008 H        1 UNL1     0.0233
     92 H         4.52761   0.817842   -9.788251 H        1 UNL1     0.0233
     93 H         5.266984   2.080499   -8.827196 H        1 UNL1     0.0233
     94 H         4.546975   -1.510342   -9.115472 H        1 UNL1     0.0233
     95 H         6.225544   -1.691042   -8.582479 H        1 UNL1     0.0233
     96 H         4.893947   -1.999718   -7.444253 H        1 UNL1     0.0233
     97 H         4.11452   10.530268   -0.129075 H        1 UNL1     0.0280
     98 H         5.721498   11.149693   -0.395765 H        1 UNL1     0.0280
     99 H         4.537512   11.148079   -1.736625 H        1 UNL1     0.0280
     100 H         6.646027   10.73881   -3.049741 H        1 UNL1     0.2922
     101 H         4.711519   0.907747   2.407961 H        1 UNL1     0.0236
     102 H         6.037217   2.134701   2.464289 H        1 UNL1     0.0236
     103 H         6.321977   0.521879   1.887041 H        1 UNL1     0.0236
     104 H         4.335745   -0.550902   1.249227 H        1 UNL1     0.2098
     105 H         0.700464   1.283095   -0.934776 H        1 UNL1     0.0234
     106 H         1.285433   -0.402586   -1.02073 H        1 UNL1     0.0234
     107 H         0.0   -0.0   0.0 H        1 UNL1     0.0234
     108 H         1.217942   3.259191   1.733981 H        1 UNL1     0.2098
     109 H         1.069107   3.062464   -0.859002 H        1 UNL1     0.0234
     110 H         -0.188284   2.325827   -1.902619 H        1 UNL1     0.0234
     111 H         0.04643   4.038618   -1.892544 H        1 UNL1     0.0234
     112 H         -3.503281   -1.563703   1.47307 H        1 UNL1     0.0342
     113 H         -3.165962   0.073725   2.138864 H        1 UNL1     0.0342
     114 H         -4.381617   -0.144332   0.87688 H        1 UNL1     0.0342
     115 H         -2.640144   1.956792   3.320324 H        1 UNL1     0.0234
     116 H         -1.133066   1.909111   4.240775 H        1 UNL1     0.0234
     117 H         -1.59897   3.299453   3.23901 H        1 UNL1     0.0234
     118 H         0.920185   7.680995   -0.780132 H        1 UNL1     0.0309
     119 H         2.182733   7.792316   -2.045692 H        1 UNL1     0.0309
     120 H         1.435287   6.26721   -1.624343 H        1 UNL1     0.0309
     121 H         -0.278057   6.260828   2.843999 H        1 UNL1     0.0524
     122 H         -2.016405   6.078245   2.576294 H        1 UNL1     0.0524
     123 H         -1.261123   5.32731   4.004366 H        1 UNL1     0.0524
@<TRIPOS>BOND
     1     1     2    1
     2     1    42    1
     3     2     3    2
     4     3     4    1
     5     4     5    2
     6     5     7    1
     7     6    75    1
     8     6    76    1
     9     6    77    1
    10     7     9   am
    11     9    10    1
    12    10    11    2
    13    10    43    1
    14    11    14    1
    15    11    15    1
    16    12    13   ar
    17    12    27   ar
    18    12    43    1
    19    13    14    1
    20    13    30   ar
    21    14    17    2
    22    15    16    1
    23    16    17    1
    24    16    18    1
    25    16    22    1
    26    18    19    1
    27    19    20    1
    28    20    21    1
    29    21    22    1
    30    23    24    1
    31    23    88    1
    32    23    89    1
    33    24    25    1
    34    24    26    1
    35    24    90    1
    36    25    91    1
    37    25    92    1
    38    25    93    1
    39    26    94    1
    40    26    95    1
    41    26    96    1
    42    27    28   ar
    43    28    29   ar
    44    29    30   ar
    45    29    31    1
    46    30    33    1
    47    31    32    1
    48    32    33    1
    49    32    35    1
    50    34    97    1
    51    34    98    1
    52    34    99    1
    53    35    61    1
    54    36    37    1
    55    36    60    1
    56    37    38    1
    57    38    39    1
    58    39    40    1
    59    40    41    1
    60    41    42    1
    61    45   100    1
    62    47   101    1
    63    47   102    1
    64    47   103    1
    65    48   104    1
    66    49   105    1
    67    49   106    1
    68    49   107    1
    69    50   108    1
    70    51    59    1
    71    52   109    1
    72    52   110    1
    73    52   111    1
    74    53    54    1
    75    54    55    2
    76    54    56    1
    77    56   112    1
    78    56   113    1
    79    56   114    1
    80    57   115    1
    81    57   116    1
    82    57   117    1
    83    58   118    1
    84    58   119    1
    85    58   120    1
    86    59   121    1
    87    59   122    1
    88    59   123    1
    89    60    61    2
    90     1    47    1
    91     1    62    1
    92     2    63    1
    93     3    64    1
    94     4    65    1
    95     5     6    1
    96     7     8    2
    97     9    78    1
    98    15    79    1
    99    18    80    1
   100    18    81    1
   101    19    82    1
   102    19    83    1
   103    20    23    1
   104    21    84    1
   105    21    85    1
   106    22    86    1
   107    22    87    1
   108    27    45    1
   109    28    34    1
   110    32    58    1
   111    33    46    2
   112    36    51    1
   113    36    66    1
   114    37    52    1
   115    37    67    1
   116    38    53    1
   117    38    68    1
   118    42    48    1
   119    42    72    1
   120    43    44    2
   121    60    73    1
   122    61    74    1
   123    39    69    1
   124    39    57    1
   125    40    70    1
   126    40    50    1
   127    41    71    1
   128    41    49    1
