@<TRIPOS>MOLECULE
*****
 123 128 0 0 0
SMALL
GASTEIGER

@<TRIPOS>ATOM
     1 C         4.294767   3.031455   -0.030039 C.3        1 UNL1     0.0009
     2 C         4.880458   4.665803   -0.680356 C.2        1 UNL1     -0.0787
     3 C         5.743859   5.434323   -1.552114 C.2        1 UNL1     -0.0649
     4 C         5.733591   7.106602   -1.816187 C.2        1 UNL1     -0.0542
     5 C         6.125169   8.145482   -2.696229 C.2        1 UNL1     0.0115
     6 C         6.978781   8.473556   -3.952031 C.3        1 UNL1     -0.0348
     7 C         5.419099   9.581278   -2.566063 C.2        1 UNL1     0.2441
     8 O         5.953274   10.538751   -2.023449 O.2        1 UNL1     -0.2702
     9 N         4.258586   9.739564   -3.343434 N.am        1 UNL1     -0.2772
     10 C         3.151591   9.313704   -2.645917 C.2        1 UNL1     0.1049
     11 C         2.912056   8.015155   -2.67071 C.2        1 UNL1     0.0801
     12 C         1.997461   9.523475   -0.436548 C.ar        1 UNL1     0.0753
     13 C         1.949333   8.093161   -0.414293 C.ar        1 UNL1     0.0305
     14 C         2.287458   7.297774   -1.592462 C.2        1 UNL1     0.0924
     15 N         3.45049   7.05194   -3.438064 N.pl3        1 UNL1     -0.3170
     16 C         2.722454   5.835578   -3.191728 C.3        1 UNL1     0.1275
     17 N         2.204972   5.983895   -1.781785 N.2        1 UNL1     -0.2557
     18 C         1.494749   5.852131   -4.097359 C.3        1 UNL1     0.0016
     19 C         1.953967   6.028543   -5.535966 C.3        1 UNL1     0.0026
     20 N         2.844663   4.929106   -5.880826 N.3        1 UNL1     -0.3018
     21 C         4.025259   4.793583   -5.025142 C.3        1 UNL1     0.0026
     22 C         3.540564   4.612831   -3.585596 C.3        1 UNL1     0.0016
     23 C         3.099599   4.835181   -7.304494 C.3        1 UNL1     0.0012
     24 C         3.565297   6.190744   -7.858869 C.3        1 UNL1     -0.0339
     25 C         2.374205   7.056564   -8.301264 C.3        1 UNL1     -0.0615
     26 C         4.425156   6.90598   -6.831319 C.3        1 UNL1     -0.0615
     27 C         1.558803   10.277374   0.649424 C.ar        1 UNL1     0.1347
     28 C         1.017107   9.716633   1.792308 C.ar        1 UNL1     0.0342
     29 C         1.024945   8.305702   1.811684 C.ar        1 UNL1     0.1435
     30 C         1.494564   7.536926   0.74601 C.ar        1 UNL1     0.0774
     31 O         0.431358   7.611248   2.80687 O.3        1 UNL1     -0.4436
     32 C         0.227428   6.298937   2.261778 C.3        1 UNL1     0.3143
     33 C         1.249339   6.168354   1.150535 C.2        1 UNL1     0.2504
     34 C         0.299199   10.460058   2.884109 C.3        1 UNL1     -0.0327
     35 O         0.591524   5.35492   3.27643 O.2        1 UNL1     -0.4528
     36 C         -1.57839   2.298031   2.680618 C.3        1 UNL1     0.0854
     37 C         -1.710463   1.406972   1.385978 C.3        1 UNL1     0.0236
     38 C         -1.444261   -0.158113   1.612665 C.3        1 UNL1     0.1131
     39 C         -0.13327   -0.631261   2.360799 C.3        1 UNL1     0.0200
     40 C         1.339684   0.067621   2.008081 C.3        1 UNL1     0.0661
     41 C         1.987762   0.290179   0.456284 C.3        1 UNL1     0.0091
     42 C         3.077771   1.611857   -0.199805 C.3        1 UNL1     0.0661
     43 C         2.446623   10.179951   -1.689366 C.2        1 UNL1     0.2131
     44 O         2.173089   11.329815   -1.982159 O.2        1 UNL1     -0.2851
     45 O         1.682269   11.662678   0.565 O.3        1 UNL1     -0.5056
     46 O         1.762269   5.16277   0.712864 O.2        1 UNL1     -0.2836
     47 C         5.342283   2.433143   0.947055 C.3        1 UNL1     -0.0566
     48 O         4.014645   0.669773   -0.858486 O.3        1 UNL1     -0.3909
     49 C         0.893773   0.0729   -0.565221 C.3        1 UNL1     -0.0577
     50 O         1.542896   1.228936   2.787681 O.3        1 UNL1     -0.3910
     51 O         -1.077847   1.648302   3.82724 O.3        1 UNL1     -0.3753
     52 C         -1.21133   2.15861   0.108928 C.3        1 UNL1     -0.0564
     53 O         -1.911051   -1.017732   0.474469 O.3        1 UNL1     -0.4608
     54 C         -2.473542   -2.261418   0.596037 C.2        1 UNL1     0.3042
     55 O         -2.784715   -2.842053   1.635207 O.2        1 UNL1     -0.2512
     56 C         -2.771447   -2.918154   -0.721789 C.3        1 UNL1     0.0332
     57 C         -0.507306   -0.844366   3.901207 C.3        1 UNL1     -0.0567
     58 C         -1.18851   6.298753   1.639968 C.3        1 UNL1     0.0210
     59 C         -0.778212   2.511956   4.92277 C.3        1 UNL1     0.0372
     60 C         -0.779487   3.542003   2.509014 C.2        1 UNL1     -0.0208
     61 C         0.163011   4.078095   3.285574 C.2        1 UNL1     0.0882
     62 H         3.559078   3.562037   0.586366 H        1 UNL1     0.0365
     63 H         4.302773   5.351709   -0.057233 H        1 UNL1     0.0576
     64 H         6.406264   4.950395   -2.273322 H        1 UNL1     0.0615
     65 H         5.113856   7.494981   -1.00343 H        1 UNL1     0.0622
     66 H         -2.60502   2.626489   2.895541 H        1 UNL1     0.0645
     67 H         -2.791689   1.41575   1.163643 H        1 UNL1     0.0362
     68 H         -2.271952   -0.38768   2.300958 H        1 UNL1     0.0741
     69 H         0.039206   -1.674993   2.134342 H        1 UNL1     0.0359
     70 H         2.01906   -0.685427   2.45128 H        1 UNL1     0.0600
     71 H         2.569709   -0.646711   0.353663 H        1 UNL1     0.0348
     72 H         3.182509   1.647681   0.894299 H        1 UNL1     0.0602
     73 H         -1.15176   4.083944   1.67537 H        1 UNL1     0.0628
     74 H         0.637819   3.565021   4.122563 H        1 UNL1     0.1022
     75 H         7.849039   7.77783   -4.027185 H        1 UNL1     0.0279
     76 H         6.492306   8.345221   -4.916365 H        1 UNL1     0.0279
     77 H         7.485221   9.447188   -3.879501 H        1 UNL1     0.0279
     78 H         4.3293   9.169354   -4.183634 H        1 UNL1     0.1553
     79 H         3.934839   7.230943   -4.298469 H        1 UNL1     0.1484
     80 H         0.940794   4.914794   -3.965839 H        1 UNL1     0.0317
     81 H         0.812333   6.661552   -3.816652 H        1 UNL1     0.0317
     82 H         2.446312   7.000035   -5.68995 H        1 UNL1     0.0428
     83 H         1.06289   6.039432   -6.164387 H        1 UNL1     0.0428
     84 H         4.634895   3.914169   -5.254895 H        1 UNL1     0.0428
     85 H         4.717889   5.637742   -5.147517 H        1 UNL1     0.0428
     86 H         4.418965   4.38477   -3.010801 H        1 UNL1     0.0317
     87 H         2.939783   3.69873   -3.504485 H        1 UNL1     0.0317
     88 H         3.900113   4.100211   -7.460352 H        1 UNL1     0.0429
     89 H         2.216959   4.468711   -7.844327 H        1 UNL1     0.0429
     90 H         4.214275   6.020352   -8.726052 H        1 UNL1     0.0308
     91 H         2.604776   8.122833   -8.217537 H        1 UNL1     0.0233
     92 H         2.094047   6.830132   -9.332694 H        1 UNL1     0.0233
     93 H         1.478596   6.876155   -7.694492 H        1 UNL1     0.0233
     94 H         5.480419   6.85489   -7.120535 H        1 UNL1     0.0233
     95 H         4.1415   7.960694   -6.775832 H        1 UNL1     0.0233
     96 H         4.316672   6.458612   -5.839321 H        1 UNL1     0.0233
     97 H         0.46359   10.010955   3.859051 H        1 UNL1     0.0280
     98 H         0.640925   11.499762   2.970685 H        1 UNL1     0.0280
     99 H         -0.784253   10.458261   2.681073 H        1 UNL1     0.0280
     100 H         2.15206   11.96854   -0.190888 H        1 UNL1     0.2922
     101 H         6.161062   3.138885   1.085564 H        1 UNL1     0.0236
     102 H         5.69764   1.448733   0.644331 H        1 UNL1     0.0236
     103 H         4.92767   2.283611   1.957961 H        1 UNL1     0.0236
     104 H         3.641131   -0.228774   -0.768653 H        1 UNL1     0.2098
     105 H         0.77333   0.887875   -1.27453 H        1 UNL1     0.0234
     106 H         0.944117   -0.880758   -1.09051 H        1 UNL1     0.0234
     107 H         0.0   -0.0   0.0 H        1 UNL1     0.0234
     108 H         1.385892   0.983695   3.719869 H        1 UNL1     0.2098
     109 H         -0.239376   1.783794   -0.241116 H        1 UNL1     0.0234
     110 H         -1.932414   2.132673   -0.715153 H        1 UNL1     0.0234
     111 H         -1.065087   3.22989   0.301066 H        1 UNL1     0.0234
     112 H         -2.019315   -3.683942   -0.93442 H        1 UNL1     0.0342
     113 H         -3.775826   -3.337828   -0.752446 H        1 UNL1     0.0342
     114 H         -2.705819   -2.154026   -1.508533 H        1 UNL1     0.0342
     115 H         -0.542328   -1.909269   4.169431 H        1 UNL1     0.0234
     116 H         0.176538   -0.353022   4.59618 H        1 UNL1     0.0234
     117 H         -1.534125   -0.527442   4.152492 H        1 UNL1     0.0234
     118 H         -1.93878   6.743146   2.317181 H        1 UNL1     0.0309
     119 H         -1.232875   6.808601   0.672348 H        1 UNL1     0.0309
     120 H         -1.571742   5.287073   1.467507 H        1 UNL1     0.0309
     121 H         0.25203   2.320301   5.221478 H        1 UNL1     0.0524
     122 H         -0.851399   3.577349   4.647781 H        1 UNL1     0.0524
     123 H         -1.451758   2.314767   5.751954 H        1 UNL1     0.0524
@<TRIPOS>BOND
     1     1     2    1
     2     1    42    1
     3     2     3    2
     4     3     4    1
     5     4     5    2
     6     5     7    1
     7     6    75    1
     8     6    76    1
     9     6    77    1
    10     7     9   am
    11     9    10    1
    12    10    11    2
    13    10    43    1
    14    11    14    1
    15    11    15    1
    16    12    13   ar
    17    12    27   ar
    18    12    43    1
    19    13    14    1
    20    13    30   ar
    21    14    17    2
    22    15    16    1
    23    16    17    1
    24    16    18    1
    25    16    22    1
    26    18    19    1
    27    19    20    1
    28    20    21    1
    29    21    22    1
    30    23    24    1
    31    23    88    1
    32    23    89    1
    33    24    25    1
    34    24    26    1
    35    24    90    1
    36    25    91    1
    37    25    92    1
    38    25    93    1
    39    26    94    1
    40    26    95    1
    41    26    96    1
    42    27    28   ar
    43    28    29   ar
    44    29    30   ar
    45    29    31    1
    46    30    33    1
    47    31    32    1
    48    32    33    1
    49    32    35    1
    50    34    97    1
    51    34    98    1
    52    34    99    1
    53    35    61    1
    54    36    37    1
    55    36    60    1
    56    37    38    1
    57    38    39    1
    58    39    40    1
    59    40    41    1
    60    41    42    1
    61    45   100    1
    62    47   101    1
    63    47   102    1
    64    47   103    1
    65    48   104    1
    66    49   105    1
    67    49   106    1
    68    49   107    1
    69    50   108    1
    70    51    59    1
    71    52   109    1
    72    52   110    1
    73    52   111    1
    74    53    54    1
    75    54    55    2
    76    54    56    1
    77    56   112    1
    78    56   113    1
    79    56   114    1
    80    57   115    1
    81    57   116    1
    82    57   117    1
    83    58   118    1
    84    58   119    1
    85    58   120    1
    86    59   121    1
    87    59   122    1
    88    59   123    1
    89    60    61    2
    90     1    47    1
    91     1    62    1
    92     2    63    1
    93     3    64    1
    94     4    65    1
    95     5     6    1
    96     7     8    2
    97     9    78    1
    98    15    79    1
    99    18    80    1
   100    18    81    1
   101    19    82    1
   102    19    83    1
   103    20    23    1
   104    21    84    1
   105    21    85    1
   106    22    86    1
   107    22    87    1
   108    27    45    1
   109    28    34    1
   110    32    58    1
   111    33    46    2
   112    36    51    1
   113    36    66    1
   114    37    52    1
   115    37    67    1
   116    38    53    1
   117    38    68    1
   118    42    48    1
   119    42    72    1
   120    43    44    2
   121    60    73    1
   122    61    74    1
   123    39    69    1
   124    39    57    1
   125    40    70    1
   126    40    50    1
   127    41    71    1
   128    41    49    1
