@<TRIPOS>MOLECULE
*****
 123 128 0 0 0
SMALL
GASTEIGER

@<TRIPOS>ATOM
     1 C         4.971382   2.240511   0.526516 C.3        1 UNL1     0.0009
     2 C         6.357971   3.117823   -0.336462 C.2        1 UNL1     -0.0787
     3 C         7.67001   3.096743   -0.948145 C.2        1 UNL1     -0.0649
     4 C         8.455166   4.351402   -1.770166 C.2        1 UNL1     -0.0542
     5 C         9.48054   4.671167   -2.693983 C.2        1 UNL1     0.0115
     6 C         10.698882   4.096423   -3.467698 C.3        1 UNL1     -0.0348
     7 C         9.457784   6.105741   -3.414032 C.2        1 UNL1     0.2441
     8 O         10.182203   7.031644   -3.075734 O.2        1 UNL1     -0.2702
     9 N         8.740632   6.146923   -4.622398 N.am        1 UNL1     -0.2772
     10 C         7.414661   6.427185   -4.38454 C.2        1 UNL1     0.1049
     11 C         6.65494   5.401797   -4.044501 C.2        1 UNL1     0.0801
     12 C         5.909795   8.00023   -3.15237 C.ar        1 UNL1     0.0753
     13 C         5.244907   6.8401   -2.64185 C.ar        1 UNL1     0.0305
     14 C         5.513906   5.5069   -3.175956 C.2        1 UNL1     0.0924
     15 N         6.911543   4.083307   -4.092099 N.pl3        1 UNL1     -0.3170
     16 C         5.693305   3.38681   -3.774224 C.3        1 UNL1     0.1275
     17 N         4.927506   4.346337   -2.896396 N.2        1 UNL1     -0.2557
     18 C         4.892222   3.26395   -5.066847 C.3        1 UNL1     0.0016
     19 C         5.755934   2.573806   -6.110538 C.3        1 UNL1     0.0026
     20 N         6.141231   1.26296   -5.606299 N.3        1 UNL1     -0.3018
     21 C         6.864094   1.274544   -4.332839 C.3        1 UNL1     0.0026
     22 C         5.976348   1.968112   -3.298061 C.3        1 UNL1     0.0016
     23 C         6.708542   0.409064   -6.63083 C.3        1 UNL1     0.0012
     24 C         5.624502   -0.028396   -7.628449 C.3        1 UNL1     -0.0339
     25 C         5.88306   -1.450754   -8.151997 C.3        1 UNL1     -0.0615
     26 C         4.251167   0.091595   -6.991006 C.3        1 UNL1     -0.0615
     27 C         5.561628   9.278911   -2.723567 C.ar        1 UNL1     0.1347
     28 C         4.541837   9.524597   -1.821505 C.ar        1 UNL1     0.0342
     29 C         3.934216   8.364686   -1.295608 C.ar        1 UNL1     0.1435
     30 C         4.297038   7.075869   -1.688712 C.ar        1 UNL1     0.0774
     31 O         2.852416   8.439329   -0.489912 O.3        1 UNL1     -0.4436
     32 C         2.259416   7.133683   -0.557094 C.3        1 UNL1     0.3143
     33 C         3.384988   6.208301   -0.97299 C.2        1 UNL1     0.2504
     34 C         3.94748   10.869284   -1.507411 C.3        1 UNL1     -0.0327
     35 O         1.887909   6.765411   0.776926 O.2        1 UNL1     -0.4528
     36 C         -1.134535   4.496021   0.426513 C.3        1 UNL1     0.0854
     37 C         -1.279275   3.146348   -0.376579 C.3        1 UNL1     0.0236
     38 C         -1.787919   1.895959   0.489188 C.3        1 UNL1     0.1131
     39 C         -1.069335   1.540957   1.852963 C.3        1 UNL1     0.0200
     40 C         0.59498   1.564692   1.962181 C.3        1 UNL1     0.0661
     41 C         1.671883   0.807698   0.892205 C.3        1 UNL1     0.0091
     42 C         3.358646   1.293784   0.359332 C.3        1 UNL1     0.0661
     43 C         6.921373   7.802672   -4.22005 C.2        1 UNL1     0.2131
     44 O         7.26252   8.678345   -4.994358 O.2        1 UNL1     -0.2851
     45 O         6.288829   10.351401   -3.235799 O.3        1 UNL1     -0.5056
     46 O         3.511366   5.025873   -0.745515 O.2        1 UNL1     -0.2836
     47 C         5.346911   1.963936   2.007214 C.3        1 UNL1     -0.0566
     48 O         3.937247   -0.055368   0.56939 O.3        1 UNL1     -0.3909
     49 C         0.916452   0.399134   -0.352743 C.3        1 UNL1     -0.0577
     50 O         1.058157   2.862629   2.276105 O.3        1 UNL1     -0.3910
     51 O         -1.297728   4.402087   1.823645 O.3        1 UNL1     -0.3753
     52 C         -0.177041   3.0026   -1.47629 C.3        1 UNL1     -0.0564
     53 O         -2.249562   0.736415   -0.344282 O.3        1 UNL1     -0.4608
     54 C         -2.055483   -0.586328   -0.043263 C.2        1 UNL1     0.3042
     55 O         -1.225598   -1.350192   -0.534832 O.2        1 UNL1     -0.2512
     56 C         -2.94727   -1.090146   1.055644 C.3        1 UNL1     0.0332
     57 C         -1.903449   2.229662   3.031145 C.3        1 UNL1     -0.0567
     58 C         1.211792   7.187024   -1.69339 C.3        1 UNL1     0.0210
     59 C         -2.512827   4.958092   2.323905 C.3        1 UNL1     0.0372
     60 C         0.136143   5.234457   0.191464 C.2        1 UNL1     -0.0208
     61 C         0.965834   5.823507   1.053659 C.2        1 UNL1     0.0882
     62 H         4.399649   3.176334   0.51822 H        1 UNL1     0.0365
     63 H         5.987293   4.144927   -0.32525 H        1 UNL1     0.0576
     64 H         8.227491   2.166046   -1.07513 H        1 UNL1     0.0615
     65 H         7.868128   5.237763   -1.514758 H        1 UNL1     0.0622
     66 H         -1.934037   5.138943   0.032185 H        1 UNL1     0.0645
     67 H         -2.144335   3.320493   -1.039832 H        1 UNL1     0.0362
     68 H         -2.786515   2.262274   0.772281 H        1 UNL1     0.0741
     69 H         -1.309786   0.519886   2.117549 H        1 UNL1     0.0359
     70 H         0.732977   0.988172   2.89687 H        1 UNL1     0.0600
     71 H         1.795775   -0.168374   1.401017 H        1 UNL1     0.0348
     72 H         3.165449   1.842659   1.29246 H        1 UNL1     0.0602
     73 H         0.277635   5.362461   -0.85297 H        1 UNL1     0.0628
     74 H         0.924041   5.69471   2.135741 H        1 UNL1     0.1022
     75 H         11.360279   3.514746   -2.781229 H        1 UNL1     0.0279
     76 H         10.479509   3.37337   -4.250091 H        1 UNL1     0.0279
     77 H         11.386701   4.879097   -3.819873 H        1 UNL1     0.0279
     78 H         8.784666   5.237487   -5.077441 H        1 UNL1     0.1553
     79 H         7.640122   3.677471   -4.650134 H        1 UNL1     0.1484
     80 H         3.97544   2.696301   -4.866717 H        1 UNL1     0.0317
     81 H         4.578308   4.249255   -5.427795 H        1 UNL1     0.0317
     82 H         6.640625   3.17434   -6.368598 H        1 UNL1     0.0428
     83 H         5.166128   2.498126   -7.024568 H        1 UNL1     0.0428
     84 H         7.071312   0.275458   -3.936986 H        1 UNL1     0.0428
     85 H         7.857377   1.734015   -4.430785 H        1 UNL1     0.0428
     86 H         6.476148   1.84057   -2.355766 H        1 UNL1     0.0317
     87 H         5.043103   1.406563   -3.168398 H        1 UNL1     0.0317
     88 H         7.470018   0.985247   -7.172551 H        1 UNL1     0.0429
     89 H         7.215207   -0.4594   -6.190562 H        1 UNL1     0.0429
     90 H         5.62067   0.661923   -8.480305 H        1 UNL1     0.0308
     91 H         6.1349   -2.135142   -7.336343 H        1 UNL1     0.0233
     92 H         5.007575   -1.832116   -8.682748 H        1 UNL1     0.0233
     93 H         6.714155   -1.488071   -8.866646 H        1 UNL1     0.0233
     94 H         3.535899   -0.555368   -7.5103 H        1 UNL1     0.0233
     95 H         4.295516   -0.225901   -5.945448 H        1 UNL1     0.0233
     96 H         3.880499   1.119635   -7.032317 H        1 UNL1     0.0233
     97 H         2.880922   10.900523   -1.709172 H        1 UNL1     0.0280
     98 H         4.060861   11.134645   -0.448173 H        1 UNL1     0.0280
     99 H         4.438108   11.642163   -2.121446 H        1 UNL1     0.0280
     100 H         7.222082   10.270144   -3.146027 H        1 UNL1     0.2922
     101 H         4.818081   2.660918   2.656992 H        1 UNL1     0.0236
     102 H         6.421617   1.973365   2.18582 H        1 UNL1     0.0236
     103 H         5.015657   0.965734   2.338963 H        1 UNL1     0.0236
     104 H         3.531521   -0.427892   1.376597 H        1 UNL1     0.2098
     105 H         0.684389   1.219817   -1.026863 H        1 UNL1     0.0234
     106 H         1.361774   -0.428601   -0.904531 H        1 UNL1     0.0234
     107 H         0.0   -0.0   0.0 H        1 UNL1     0.0234
     108 H         2.019484   2.876961   2.104602 H        1 UNL1     0.2098
     109 H         -0.22522   3.808919   -2.221435 H        1 UNL1     0.0234
     110 H         0.836379   2.943986   -1.064845 H        1 UNL1     0.0234
     111 H         -0.289151   2.068042   -2.041956 H        1 UNL1     0.0234
     112 H         -2.727721   -2.142446   1.260113 H        1 UNL1     0.0342
     113 H         -2.861316   -0.49015   1.960332 H        1 UNL1     0.0342
     114 H         -3.988168   -1.024249   0.710167 H        1 UNL1     0.0342
     115 H         -1.880518   1.630668   3.951943 H        1 UNL1     0.0234
     116 H         -1.564619   3.235919   3.285487 H        1 UNL1     0.0234
     117 H         -2.98827   2.275358   2.833617 H        1 UNL1     0.0234
     118 H         0.178709   7.131903   -1.307763 H        1 UNL1     0.0309
     119 H         1.310538   8.073783   -2.327511 H        1 UNL1     0.0309
     120 H         1.276721   6.324627   -2.36582 H        1 UNL1     0.0309
     121 H         -2.355751   5.202514   3.374116 H        1 UNL1     0.0524
     122 H         -2.791634   5.889924   1.804297 H        1 UNL1     0.0524
     123 H         -3.323431   4.241984   2.222897 H        1 UNL1     0.0524
@<TRIPOS>BOND
     1     1     2    1
     2     1    42    1
     3     2     3    2
     4     3     4    1
     5     4     5    2
     6     5     7    1
     7     6    75    1
     8     6    76    1
     9     6    77    1
    10     7     9   am
    11     9    10    1
    12    10    11    2
    13    10    43    1
    14    11    14    1
    15    11    15    1
    16    12    13   ar
    17    12    27   ar
    18    12    43    1
    19    13    14    1
    20    13    30   ar
    21    14    17    2
    22    15    16    1
    23    16    17    1
    24    16    18    1
    25    16    22    1
    26    18    19    1
    27    19    20    1
    28    20    21    1
    29    21    22    1
    30    23    24    1
    31    23    88    1
    32    23    89    1
    33    24    25    1
    34    24    26    1
    35    24    90    1
    36    25    91    1
    37    25    92    1
    38    25    93    1
    39    26    94    1
    40    26    95    1
    41    26    96    1
    42    27    28   ar
    43    28    29   ar
    44    29    30   ar
    45    29    31    1
    46    30    33    1
    47    31    32    1
    48    32    33    1
    49    32    35    1
    50    34    97    1
    51    34    98    1
    52    34    99    1
    53    35    61    1
    54    36    37    1
    55    36    60    1
    56    37    38    1
    57    38    39    1
    58    39    40    1
    59    40    41    1
    60    41    42    1
    61    45   100    1
    62    47   101    1
    63    47   102    1
    64    47   103    1
    65    48   104    1
    66    49   105    1
    67    49   106    1
    68    49   107    1
    69    50   108    1
    70    51    59    1
    71    52   109    1
    72    52   110    1
    73    52   111    1
    74    53    54    1
    75    54    55    2
    76    54    56    1
    77    56   112    1
    78    56   113    1
    79    56   114    1
    80    57   115    1
    81    57   116    1
    82    57   117    1
    83    58   118    1
    84    58   119    1
    85    58   120    1
    86    59   121    1
    87    59   122    1
    88    59   123    1
    89    60    61    2
    90     1    47    1
    91     1    62    1
    92     2    63    1
    93     3    64    1
    94     4    65    1
    95     5     6    1
    96     7     8    2
    97     9    78    1
    98    15    79    1
    99    18    80    1
   100    18    81    1
   101    19    82    1
   102    19    83    1
   103    20    23    1
   104    21    84    1
   105    21    85    1
   106    22    86    1
   107    22    87    1
   108    27    45    1
   109    28    34    1
   110    32    58    1
   111    33    46    2
   112    36    51    1
   113    36    66    1
   114    37    52    1
   115    37    67    1
   116    38    53    1
   117    38    68    1
   118    42    48    1
   119    42    72    1
   120    43    44    2
   121    60    73    1
   122    61    74    1
   123    39    69    1
   124    39    57    1
   125    40    70    1
   126    40    50    1
   127    41    71    1
   128    41    49    1
