@<TRIPOS>MOLECULE
*****
 123 128 0 0 0
SMALL
GASTEIGER

@<TRIPOS>ATOM
     1 C         -0.190359   1.809308   4.999089 C.3        1 UNL1     0.0009
     2 C         -1.273291   2.098148   6.475865 C.2        1 UNL1     -0.0787
     3 C         -2.17826   2.945742   7.223301 C.2        1 UNL1     -0.0649
     4 C         -3.044033   2.561364   8.626529 C.2        1 UNL1     -0.0542
     5 C         -4.151388   2.908394   9.439187 C.2        1 UNL1     0.0115
     6 C         -5.241798   3.987665   9.683119 C.3        1 UNL1     -0.0348
     7 C         -4.71016   1.832569   10.491501 C.2        1 UNL1     0.2441
     8 O         -4.46973   1.88683   11.689739 O.2        1 UNL1     -0.2702
     9 N         -5.70462   0.976662   9.986898 N.am        1 UNL1     -0.2772
     10 C         -5.13397   -0.1318   9.404669 C.2        1 UNL1     0.1049
     11 C         -4.71921   0.013394   8.159231 C.2        1 UNL1     0.0801
     12 C         -3.440243   -1.929705   9.799842 C.ar        1 UNL1     0.0753
     13 C         -2.89555   -1.589057   8.520828 C.ar        1 UNL1     0.0305
     14 C         -3.59871   -0.695529   7.603099 C.2        1 UNL1     0.0924
     15 N         -4.947606   1.006619   7.282952 N.pl3        1 UNL1     -0.3170
     16 C         -4.415122   0.600218   6.00955 C.3        1 UNL1     0.1275
     17 N         -3.296036   -0.35185   6.35442 N.2        1 UNL1     -0.2557
     18 C         -5.486243   -0.237926   5.318235 C.3        1 UNL1     0.0016
     19 C         -6.764158   0.581249   5.231778 C.3        1 UNL1     0.0026
     20 N         -6.488762   1.80009   4.483705 N.3        1 UNL1     -0.3018
     21 C         -5.427849   2.643553   5.038143 C.3        1 UNL1     0.0026
     22 C         -4.152532   1.802098   5.11173 C.3        1 UNL1     0.0016
     23 C         -7.692858   2.502752   4.087391 C.3        1 UNL1     0.0012
     24 C         -8.111763   2.094373   2.6663 C.3        1 UNL1     -0.0339
     25 C         -7.693622   0.648918   2.35027 C.3        1 UNL1     -0.0615
     26 C         -9.60623   2.296161   2.485664 C.3        1 UNL1     -0.0615
     27 C         -2.825139   -2.874503   10.61784 C.ar        1 UNL1     0.1347
     28 C         -1.688064   -3.571087   10.249217 C.ar        1 UNL1     0.0342
     29 C         -1.142076   -3.183936   9.006971 C.ar        1 UNL1     0.1435
     30 C         -1.727072   -2.213249   8.192866 C.ar        1 UNL1     0.0774
     31 O         -0.099223   -3.844957   8.45878 O.3        1 UNL1     -0.4436
     32 C         -0.143655   -3.500954   7.06574 C.3        1 UNL1     0.3143
     33 C         -0.898313   -2.188283   7.005726 C.2        1 UNL1     0.2504
     34 C         -1.119355   -4.768849   10.957761 C.3        1 UNL1     -0.0327
     35 O         1.200667   -3.228653   6.651126 O.2        1 UNL1     -0.4528
     36 C         1.370389   -4.179699   2.980323 C.3        1 UNL1     0.0854
     37 C         0.503826   -3.651279   1.77311 C.3        1 UNL1     0.0236
     38 C         1.346643   -3.051743   0.547565 C.3        1 UNL1     0.1131
     39 C         2.462144   -1.963664   0.819614 C.3        1 UNL1     0.0200
     40 C         2.174796   -0.70482   1.875635 C.3        1 UNL1     0.0661
     41 C         0.814688   0.308903   1.866671 C.3        1 UNL1     0.0091
     42 C         -0.056326   1.143838   3.248562 C.3        1 UNL1     0.0661
     43 C         -4.731092   -1.30912   10.188226 C.2        1 UNL1     0.2131
     44 O         -5.480213   -1.781039   11.024197 O.2        1 UNL1     -0.2851
     45 O         -3.394355   -3.114871   11.866701 O.3        1 UNL1     -0.5056
     46 O         -0.817253   -1.309728   6.176615 O.2        1 UNL1     -0.2836
     47 C         1.126883   2.620399   5.129412 C.3        1 UNL1     -0.0566
     48 O         -0.114835   2.459733   2.567304 O.3        1 UNL1     -0.3909
     49 C         -0.247485   -0.307403   0.983806 C.3        1 UNL1     -0.0577
     50 O         2.487947   -1.08147   3.201454 O.3        1 UNL1     -0.3910
     51 O         2.75155   -3.905069   2.913958 O.3        1 UNL1     -0.3753
     52 C         -0.834566   -3.003704   2.257156 C.3        1 UNL1     -0.0564
     53 O         0.543459   -2.885297   -0.709223 O.3        1 UNL1     -0.4608
     54 C         0.868421   -2.064959   -1.757734 C.2        1 UNL1     0.3042
     55 O         0.431219   -2.112829   -2.906822 O.2        1 UNL1     -0.2512
     56 C         1.828257   -0.969654   -1.389312 C.3        1 UNL1     0.0332
     57 C         3.862956   -2.727141   0.933643 C.3        1 UNL1     -0.0567
     58 C         -0.988839   -4.594467   6.371894 C.3        1 UNL1     0.0210
     59 C         3.576817   -4.798269   3.660276 C.3        1 UNL1     0.0372
     60 C         0.909412   -3.739754   4.325355 C.2        1 UNL1     -0.0208
     61 C         1.600444   -3.271909   5.365711 C.2        1 UNL1     0.0882
     62 H         0.023558   0.80223   5.376906 H        1 UNL1     0.0365
     63 H         -1.079837   1.19019   7.050894 H        1 UNL1     0.0576
     64 H         -2.519143   3.906157   6.830224 H        1 UNL1     0.0615
     65 H         -2.576028   1.637288   8.976583 H        1 UNL1     0.0622
     66 H         1.238102   -5.2706   2.958382 H        1 UNL1     0.0645
     67 H         0.083869   -4.567669   1.323194 H        1 UNL1     0.0362
     68 H         1.891236   -3.956978   0.238549 H        1 UNL1     0.0741
     69 H         2.681049   -1.450381   -0.107225 H        1 UNL1     0.0359
     70 H         2.992801   -0.019345   1.582289 H        1 UNL1     0.0600
     71 H         1.187406   1.126696   1.219173 H        1 UNL1     0.0348
     72 H         0.942461   0.887267   3.630546 H        1 UNL1     0.0602
     73 H         -0.12239   -3.966058   4.432215 H        1 UNL1     0.0628
     74 H         2.644909   -2.961283   5.322782 H        1 UNL1     0.1022
     75 H         -6.253861   3.518272   9.732441 H        1 UNL1     0.0279
     76 H         -5.187748   4.527498   10.625843 H        1 UNL1     0.0279
     77 H         -5.361411   4.671711   8.830198 H        1 UNL1     0.0279
     78 H         -6.238881   1.459678   9.267636 H        1 UNL1     0.1553
     79 H         -5.697606   1.667188   7.372857 H        1 UNL1     0.1484
     80 H         -5.127328   -0.526438   4.322893 H        1 UNL1     0.0317
     81 H         -5.670006   -1.1679   5.866898 H        1 UNL1     0.0317
     82 H         -7.168445   0.811396   6.228521 H        1 UNL1     0.0428
     83 H         -7.514987   -0.035807   4.73726 H        1 UNL1     0.0428
     84 H         -5.186269   3.510548   4.415431 H        1 UNL1     0.0428
     85 H         -5.716076   3.080843   6.004072 H        1 UNL1     0.0428
     86 H         -3.371718   2.483813   5.393833 H        1 UNL1     0.0317
     87 H         -3.85729   1.480393   4.105532 H        1 UNL1     0.0317
     88 H         -8.495646   2.223455   4.782243 H        1 UNL1     0.0429
     89 H         -7.56397   3.590001   4.16518 H        1 UNL1     0.0429
     90 H         -7.629686   2.763278   1.94354 H        1 UNL1     0.0308
     91 H         -6.735134   0.618288   1.82352 H        1 UNL1     0.0233
     92 H         -7.618038   0.059444   3.267012 H        1 UNL1     0.0233
     93 H         -8.422859   0.132818   1.714118 H        1 UNL1     0.0233
     94 H         -9.91193   1.977596   1.483217 H        1 UNL1     0.0233
     95 H         -10.155454   1.692272   3.213424 H        1 UNL1     0.0233
     96 H         -9.885726   3.345501   2.615031 H        1 UNL1     0.0233
     97 H         -0.554544   -4.488999   11.842013 H        1 UNL1     0.0280
     98 H         -1.903   -5.454252   11.306159 H        1 UNL1     0.0280
     99 H         -0.446702   -5.315527   10.27675 H        1 UNL1     0.0280
     100 H         -4.258058   -3.487462   11.838145 H        1 UNL1     0.2922
     101 H         1.384154   2.737166   6.181949 H        1 UNL1     0.0236
     102 H         1.095075   3.576309   4.607677 H        1 UNL1     0.0236
     103 H         1.986301   2.088136   4.688629 H        1 UNL1     0.0236
     104 H         0.604365   3.012402   2.931007 H        1 UNL1     0.2098
     105 H         -0.26781   -1.394237   0.997582 H        1 UNL1     0.0234
     106 H         -1.250938   0.091118   1.132763 H        1 UNL1     0.0234
     107 H         0.0   0.0   0.0 H        1 UNL1     0.0234
     108 H         2.745073   -0.270174   3.680466 H        1 UNL1     0.2098
     109 H         -1.305323   -2.389181   1.477117 H        1 UNL1     0.0234
     110 H         -1.556866   -3.737116   2.6315 H        1 UNL1     0.0234
     111 H         -0.673275   -2.330051   3.109285 H        1 UNL1     0.0234
     112 H         2.853111   -1.352855   -1.402616 H        1 UNL1     0.0342
     113 H         1.727394   -0.101203   -2.038515 H        1 UNL1     0.0342
     114 H         1.602818   -0.646521   -0.363677 H        1 UNL1     0.0342
     115 H         3.736054   -3.818349   0.914913 H        1 UNL1     0.0234
     116 H         4.576036   -2.465985   0.149191 H        1 UNL1     0.0234
     117 H         4.362123   -2.587354   1.907929 H        1 UNL1     0.0234
     118 H         -0.362072   -5.407969   5.966452 H        1 UNL1     0.0309
     119 H         -1.755058   -5.02419   7.024925 H        1 UNL1     0.0309
     120 H         -1.518252   -4.219609   5.489109 H        1 UNL1     0.0309
     121 H         3.863445   -4.29081   4.580975 H        1 UNL1     0.0524
     122 H         3.045097   -5.722294   3.942214 H        1 UNL1     0.0524
     123 H         4.46089   -5.061321   3.086419 H        1 UNL1     0.0524
@<TRIPOS>BOND
     1     1     2    1
     2     1    42    1
     3     2     3    2
     4     3     4    1
     5     4     5    2
     6     5     7    1
     7     6    75    1
     8     6    76    1
     9     6    77    1
    10     7     9   am
    11     9    10    1
    12    10    11    2
    13    10    43    1
    14    11    14    1
    15    11    15    1
    16    12    13   ar
    17    12    27   ar
    18    12    43    1
    19    13    14    1
    20    13    30   ar
    21    14    17    2
    22    15    16    1
    23    16    17    1
    24    16    18    1
    25    16    22    1
    26    18    19    1
    27    19    20    1
    28    20    21    1
    29    21    22    1
    30    23    24    1
    31    23    88    1
    32    23    89    1
    33    24    25    1
    34    24    26    1
    35    24    90    1
    36    25    91    1
    37    25    92    1
    38    25    93    1
    39    26    94    1
    40    26    95    1
    41    26    96    1
    42    27    28   ar
    43    28    29   ar
    44    29    30   ar
    45    29    31    1
    46    30    33    1
    47    31    32    1
    48    32    33    1
    49    32    35    1
    50    34    97    1
    51    34    98    1
    52    34    99    1
    53    35    61    1
    54    36    37    1
    55    36    60    1
    56    37    38    1
    57    38    39    1
    58    39    40    1
    59    40    41    1
    60    41    42    1
    61    45   100    1
    62    47   101    1
    63    47   102    1
    64    47   103    1
    65    48   104    1
    66    49   105    1
    67    49   106    1
    68    49   107    1
    69    50   108    1
    70    51    59    1
    71    52   109    1
    72    52   110    1
    73    52   111    1
    74    53    54    1
    75    54    55    2
    76    54    56    1
    77    56   112    1
    78    56   113    1
    79    56   114    1
    80    57   115    1
    81    57   116    1
    82    57   117    1
    83    58   118    1
    84    58   119    1
    85    58   120    1
    86    59   121    1
    87    59   122    1
    88    59   123    1
    89    60    61    2
    90     1    47    1
    91     1    62    1
    92     2    63    1
    93     3    64    1
    94     4    65    1
    95     5     6    1
    96     7     8    2
    97     9    78    1
    98    15    79    1
    99    18    80    1
   100    18    81    1
   101    19    82    1
   102    19    83    1
   103    20    23    1
   104    21    84    1
   105    21    85    1
   106    22    86    1
   107    22    87    1
   108    27    45    1
   109    28    34    1
   110    32    58    1
   111    33    46    2
   112    36    51    1
   113    36    66    1
   114    37    52    1
   115    37    67    1
   116    38    53    1
   117    38    68    1
   118    42    48    1
   119    42    72    1
   120    43    44    2
   121    60    73    1
   122    61    74    1
   123    39    69    1
   124    39    57    1
   125    40    70    1
   126    40    50    1
   127    41    71    1
   128    41    49    1
