@<TRIPOS>MOLECULE
*****
 123 128 0 0 0
SMALL
GASTEIGER

@<TRIPOS>ATOM
     1 C         -2.975916   -2.562625   -3.158351 C.3        1 UNL1     0.0009
     2 C         -3.160936   -2.735346   -4.994916 C.2        1 UNL1     -0.0787
     3 C         -3.94313   -2.560078   -6.200528 C.2        1 UNL1     -0.0649
     4 C         -3.466521   -2.842356   -7.800378 C.2        1 UNL1     -0.0542
     5 C         -3.7393   -2.55614   -9.160801 C.2        1 UNL1     0.0115
     6 C         -4.7698   -1.909231   -10.126669 C.3        1 UNL1     -0.0348
     7 C         -2.59854   -2.83085   -10.256334 C.2        1 UNL1     0.2441
     8 O         -2.605656   -3.806636   -10.994112 O.2        1 UNL1     -0.2702
     9 N         -1.734441   -1.747215   -10.491322 N.am        1 UNL1     -0.2772
     10 C         -0.673221   -1.780702   -9.616099 C.2        1 UNL1     0.1049
     11 C         -0.888956   -1.2646   -8.419722 C.2        1 UNL1     0.0801
     12 C         1.084242   -3.298862   -8.686665 C.ar        1 UNL1     0.0753
     13 C         0.667551   -2.858758   -7.390021 C.ar        1 UNL1     0.0305
     14 C         -0.243525   -1.728864   -7.221701 C.2        1 UNL1     0.0924
     15 N         -1.913285   -0.517776   -7.97303 N.pl3        1 UNL1     -0.3170
     16 C         -1.583458   -0.067875   -6.646736 C.3        1 UNL1     0.1275
     17 N         -0.653891   -1.127976   -6.108391 N.2        1 UNL1     -0.2557
     18 C         -0.743136   1.196959   -6.794231 C.3        1 UNL1     0.0016
     19 C         -1.522943   2.204987   -7.623307 C.3        1 UNL1     0.0026
     20 N         -2.783215   2.488686   -6.950805 N.3        1 UNL1     -0.3018
     21 C         -3.63479   1.322347   -6.708232 C.3        1 UNL1     0.0026
     22 C         -2.833243   0.32494   -5.870023 C.3        1 UNL1     0.0016
     23 C         -3.463336   3.647973   -7.493143 C.3        1 UNL1     0.0012
     24 C         -2.705287   4.935076   -7.131915 C.3        1 UNL1     -0.0339
     25 C         -1.200734   4.671204   -6.956561 C.3        1 UNL1     -0.0615
     26 C         -2.967043   6.004637   -8.178004 C.3        1 UNL1     -0.0615
     27 C         2.044828   -4.296392   -8.836087 C.ar        1 UNL1     0.1347
     28 C         2.685996   -4.897639   -7.767698 C.ar        1 UNL1     0.0342
     29 C         2.224521   -4.483192   -6.500244 C.ar        1 UNL1     0.1435
     30 C         1.237275   -3.510911   -6.33521 C.ar        1 UNL1     0.0774
     31 O         2.825044   -4.894958   -5.36234 O.3        1 UNL1     -0.4436
     32 C         2.419147   -3.938693   -4.371544 C.3        1 UNL1     0.3143
     33 C         1.130636   -3.342342   -4.900993 C.2        1 UNL1     0.2504
     34 C         3.895649   -5.786307   -7.85201 C.3        1 UNL1     -0.0327
     35 O         2.08405   -4.670048   -3.185761 O.2        1 UNL1     -0.4528
     36 C         2.859607   -2.353691   -0.280405 C.3        1 UNL1     0.0854
     37 C         2.30515   -0.907245   0.016063 C.3        1 UNL1     0.0236
     38 C         1.622633   -0.727063   1.45601 C.3        1 UNL1     0.1131
     39 C         0.512082   -1.748129   1.931794 C.3        1 UNL1     0.0200
     40 C         -0.686862   -2.241966   0.882463 C.3        1 UNL1     0.0661
     41 C         -1.65465   -1.225091   -0.069883 C.3        1 UNL1     0.0091
     42 C         -2.396216   -1.496456   -1.725734 C.3        1 UNL1     0.0661
     43 C         0.524916   -2.595321   -9.867531 C.2        1 UNL1     0.2131
     44 O         1.059068   -2.587604   -10.96177 O.2        1 UNL1     -0.2851
     45 O         2.360823   -4.698728   -10.132124 O.3        1 UNL1     -0.5056
     46 O         0.212782   -2.857531   -4.27781 O.2        1 UNL1     -0.2836
     47 C         -3.823057   -3.638779   -2.427442 C.3        1 UNL1     -0.0566
     48 O         -3.739341   -1.008053   -1.330012 O.3        1 UNL1     -0.3909
     49 C         -1.044893   0.158949   -0.080948 C.3        1 UNL1     -0.0577
     50 O         -0.260292   -3.354309   0.1219 O.3        1 UNL1     -0.3910
     51 O         2.536947   -3.343862   0.669797 O.3        1 UNL1     -0.3753
     52 C         1.724829   -0.231843   -1.269242 C.3        1 UNL1     -0.0564
     53 O         1.425214   0.707049   1.85183 O.3        1 UNL1     -0.4608
     54 C         0.34833   1.200763   2.540668 C.2        1 UNL1     0.3042
     55 O         0.228491   1.310841   3.760241 O.2        1 UNL1     -0.2512
     56 C         -0.756382   1.699013   1.652934 C.3        1 UNL1     0.0332
     57 C         1.233504   -2.866678   2.818683 C.3        1 UNL1     -0.0567
     58 C         3.506884   -2.839597   -4.352955 C.3        1 UNL1     0.0210
     59 C         3.465105   -4.424735   0.747915 C.3        1 UNL1     0.0372
     60 C         2.497225   -2.904819   -1.614608 C.2        1 UNL1     -0.0208
     61 C         2.055123   -4.115087   -1.958907 C.2        1 UNL1     0.0882
     62 H         -1.960147   -2.967531   -3.241883 H        1 UNL1     0.0365
     63 H         -2.23441   -3.256497   -5.244757 H        1 UNL1     0.0576
     64 H         -4.908834   -2.049837   -6.187202 H        1 UNL1     0.0615
     65 H         -2.543252   -3.419282   -7.69932 H        1 UNL1     0.0622
     66 H         3.952113   -2.233799   -0.290534 H        1 UNL1     0.0645
     67 H         3.213252   -0.289098   0.124715 H        1 UNL1     0.0362
     68 H         2.494339   -0.923695   2.098651 H        1 UNL1     0.0741
     69 H         -0.050099   -1.299331   2.739843 H        1 UNL1     0.0359
     70 H         -1.411604   -2.66278   1.605461 H        1 UNL1     0.0600
     71 H         -2.513099   -1.078585   0.614631 H        1 UNL1     0.0348
     72 H         -2.155379   -2.495353   -1.33392 H        1 UNL1     0.0602
     73 H         2.762003   -2.203022   -2.366021 H        1 UNL1     0.0628
     74 H         1.708674   -4.869302   -1.25154 H        1 UNL1     0.1022
     75 H         -5.803329   -2.258765   -9.888601 H        1 UNL1     0.0279
     76 H         -4.870604   -0.827462   -10.074865 H        1 UNL1     0.0279
     77 H         -4.656904   -2.256945   -11.163998 H        1 UNL1     0.0279
     78 H         -2.23211   -0.872979   -10.336038 H        1 UNL1     0.1553
     79 H         -2.54401   -0.020628   -8.574663 H        1 UNL1     0.1484
     80 H         -0.512547   1.591286   -5.797185 H        1 UNL1     0.0317
     81 H         0.216568   0.975473   -7.273359 H        1 UNL1     0.0317
     82 H         -1.693704   1.843996   -8.648217 H        1 UNL1     0.0428
     83 H         -0.904863   3.098368   -7.717634 H        1 UNL1     0.0428
     84 H         -4.536914   1.550151   -6.131959 H        1 UNL1     0.0428
     85 H         -4.017594   0.893828   -7.644794 H        1 UNL1     0.0428
     86 H         -3.52661   -0.450183   -5.60092 H        1 UNL1     0.0317
     87 H         -2.567918   0.774276   -4.905245 H        1 UNL1     0.0317
     88 H         -3.485429   3.550532   -8.586446 H        1 UNL1     0.0429
     89 H         -4.505985   3.693844   -7.15321 H        1 UNL1     0.0429
     90 H         -3.101987   5.333383   -6.190536 H        1 UNL1     0.0308
     91 H         -0.812478   4.035105   -7.757646 H        1 UNL1     0.0233
     92 H         -0.64291   5.610479   -6.942207 H        1 UNL1     0.0233
     93 H         -0.972885   4.165749   -6.010287 H        1 UNL1     0.0233
     94 H         -2.168307   6.753994   -8.160075 H        1 UNL1     0.0233
     95 H         -2.985663   5.555562   -9.174974 H        1 UNL1     0.0233
     96 H         -3.920041   6.511068   -8.001118 H        1 UNL1     0.0233
     97 H         4.729729   -5.394771   -7.277345 H        1 UNL1     0.0280
     98 H         3.700375   -6.790089   -7.452576 H        1 UNL1     0.0280
     99 H         4.213409   -5.878325   -8.903512 H        1 UNL1     0.0280
     100 H         1.616497   -4.89296   -10.674227 H        1 UNL1     0.2922
     101 H         -3.170649   -4.424748   -2.047609 H        1 UNL1     0.0236
     102 H         -4.630316   -4.038063   -3.040538 H        1 UNL1     0.0236
     103 H         -4.323943   -3.233889   -1.532249 H        1 UNL1     0.0236
     104 H         -3.910321   -1.320114   -0.419872 H        1 UNL1     0.2098
     105 H         -1.22608   0.722256   -0.992907 H        1 UNL1     0.0234
     106 H         -1.280641   0.767406   0.792053 H        1 UNL1     0.0234
     107 H         0.0   0.0   0.0 H        1 UNL1     0.0234
     108 H         0.375458   -3.024988   -0.542282 H        1 UNL1     0.2098
     109 H         2.45053   -0.21547   -2.094349 H        1 UNL1     0.0234
     110 H         0.790761   -0.689976   -1.611841 H        1 UNL1     0.0234
     111 H         1.456133   0.817543   -1.088858 H        1 UNL1     0.0234
     112 H         -1.550625   2.142993   2.260722 H        1 UNL1     0.0342
     113 H         -0.395071   2.404567   0.906281 H        1 UNL1     0.0342
     114 H         -1.182116   0.838277   1.119034 H        1 UNL1     0.0342
     115 H         1.773664   -2.428067   3.668998 H        1 UNL1     0.0234
     116 H         0.55489   -3.624017   3.216139 H        1 UNL1     0.0234
     117 H         2.052063   -3.385995   2.291225 H        1 UNL1     0.0234
     118 H         4.156692   -2.914383   -3.463481 H        1 UNL1     0.0309
     119 H         4.130286   -2.836841   -5.252713 H        1 UNL1     0.0309
     120 H         3.084831   -1.831804   -4.273387 H        1 UNL1     0.0309
     121 H         4.284094   -4.206166   0.063195 H        1 UNL1     0.0524
     122 H         3.896214   -4.533884   1.757009 H        1 UNL1     0.0524
     123 H         2.981417   -5.35643   0.468479 H        1 UNL1     0.0524
@<TRIPOS>BOND
     1     1     2    1
     2     1    42    1
     3     2     3    2
     4     3     4    1
     5     4     5    2
     6     5     7    1
     7     6    75    1
     8     6    76    1
     9     6    77    1
    10     7     9   am
    11     9    10    1
    12    10    11    2
    13    10    43    1
    14    11    14    1
    15    11    15    1
    16    12    13   ar
    17    12    27   ar
    18    12    43    1
    19    13    14    1
    20    13    30   ar
    21    14    17    2
    22    15    16    1
    23    16    17    1
    24    16    18    1
    25    16    22    1
    26    18    19    1
    27    19    20    1
    28    20    21    1
    29    21    22    1
    30    23    24    1
    31    23    88    1
    32    23    89    1
    33    24    25    1
    34    24    26    1
    35    24    90    1
    36    25    91    1
    37    25    92    1
    38    25    93    1
    39    26    94    1
    40    26    95    1
    41    26    96    1
    42    27    28   ar
    43    28    29   ar
    44    29    30   ar
    45    29    31    1
    46    30    33    1
    47    31    32    1
    48    32    33    1
    49    32    35    1
    50    34    97    1
    51    34    98    1
    52    34    99    1
    53    35    61    1
    54    36    37    1
    55    36    60    1
    56    37    38    1
    57    38    39    1
    58    39    40    1
    59    40    41    1
    60    41    42    1
    61    45   100    1
    62    47   101    1
    63    47   102    1
    64    47   103    1
    65    48   104    1
    66    49   105    1
    67    49   106    1
    68    49   107    1
    69    50   108    1
    70    51    59    1
    71    52   109    1
    72    52   110    1
    73    52   111    1
    74    53    54    1
    75    54    55    2
    76    54    56    1
    77    56   112    1
    78    56   113    1
    79    56   114    1
    80    57   115    1
    81    57   116    1
    82    57   117    1
    83    58   118    1
    84    58   119    1
    85    58   120    1
    86    59   121    1
    87    59   122    1
    88    59   123    1
    89    60    61    2
    90     1    47    1
    91     1    62    1
    92     2    63    1
    93     3    64    1
    94     4    65    1
    95     5     6    1
    96     7     8    2
    97     9    78    1
    98    15    79    1
    99    18    80    1
   100    18    81    1
   101    19    82    1
   102    19    83    1
   103    20    23    1
   104    21    84    1
   105    21    85    1
   106    22    86    1
   107    22    87    1
   108    27    45    1
   109    28    34    1
   110    32    58    1
   111    33    46    2
   112    36    51    1
   113    36    66    1
   114    37    52    1
   115    37    67    1
   116    38    53    1
   117    38    68    1
   118    42    48    1
   119    42    72    1
   120    43    44    2
   121    60    73    1
   122    61    74    1
   123    39    69    1
   124    39    57    1
   125    40    70    1
   126    40    50    1
   127    41    71    1
   128    41    49    1
