@<TRIPOS>MOLECULE
*****
 123 128 0 0 0
SMALL
GASTEIGER

@<TRIPOS>ATOM
     1 C         5.410938   0.266198   -0.118668 C.3        1 UNL1     0.0009
     2 C         6.954668   -0.389753   0.671055 C.2        1 UNL1     -0.0787
     3 C         8.118873   -0.1916   1.508557 C.2        1 UNL1     -0.0649
     4 C         9.245876   -1.349226   2.014642 C.2        1 UNL1     -0.0542
     5 C         10.245907   -1.655958   2.970116 C.2        1 UNL1     0.0115
     6 C         11.10852   -1.0664   4.119744 C.3        1 UNL1     -0.0348
     7 C         10.696868   -3.184974   3.159147 C.2        1 UNL1     0.2441
     8 O         11.732838   -3.636017   2.690264 O.2        1 UNL1     -0.2702
     9 N         9.957471   -3.903245   4.114935 N.am        1 UNL1     -0.2772
     10 C         8.847634   -4.473011   3.53446 C.2        1 UNL1     0.1049
     11 C         7.792579   -3.689559   3.402989 C.2        1 UNL1     0.0801
     12 C         8.118588   -5.848151   1.576191 C.ar        1 UNL1     0.0753
     13 C         7.114758   -4.853078   1.350887 C.ar        1 UNL1     0.0305
     14 C         6.836732   -3.810001   2.335643 C.2        1 UNL1     0.0924
     15 N         7.544361   -2.478967   3.931555 N.pl3        1 UNL1     -0.3170
     16 C         6.182752   -2.134082   3.619581 C.3        1 UNL1     0.1275
     17 N         5.888497   -2.87739   2.339491 N.2        1 UNL1     -0.2557
     18 C         5.299216   -2.767724   4.689891 C.3        1 UNL1     0.0016
     19 C         5.770678   -2.291097   6.054494 C.3        1 UNL1     0.0026
     20 N         5.685386   -0.837859   6.097546 N.3        1 UNL1     -0.3018
     21 C         6.454207   -0.1391   5.065549 C.3        1 UNL1     0.0026
     22 C         5.961045   -0.62962   3.70317 C.3        1 UNL1     0.0016
     23 C         5.823359   -0.304321   7.438048 C.3        1 UNL1     0.0012
     24 C         4.583943   -0.64103   8.281986 C.3        1 UNL1     -0.0339
     25 C         4.264368   0.48041   9.284134 C.3        1 UNL1     -0.0615
     26 C         3.400994   -0.934781   7.375828 C.3        1 UNL1     -0.0615
     27 C         8.295439   -6.908449   0.690409 C.ar        1 UNL1     0.1347
     28 C         7.506007   -7.100603   -0.429379 C.ar        1 UNL1     0.0342
     29 C         6.556516   -6.081941   -0.657321 C.ar        1 UNL1     0.1435
     30 C         6.392184   -4.994705   0.201825 C.ar        1 UNL1     0.0774
     31 O         5.639824   -6.181082   -1.644668 O.3        1 UNL1     -0.4436
     32 C         4.606746   -5.255493   -1.274659 C.3        1 UNL1     0.3143
     33 C         5.281345   -4.2542   -0.358939 C.2        1 UNL1     0.2504
     34 C         7.470183   -8.339009   -1.280947 C.3        1 UNL1     -0.0327
     35 O         4.22579   -4.546173   -2.459981 O.2        1 UNL1     -0.4528
     36 C         0.565319   -3.650368   -2.005478 C.3        1 UNL1     0.0854
     37 C         -0.122396   -2.824528   -0.851112 C.3        1 UNL1     0.0236
     38 C         -0.988105   -1.567353   -1.342845 C.3        1 UNL1     0.1131
     39 C         -0.350803   -0.516512   -2.338762 C.3        1 UNL1     0.0200
     40 C         1.209821   0.026039   -2.109575 C.3        1 UNL1     0.0661
     41 C         1.85263   0.617775   -0.655527 C.3        1 UNL1     0.0091
     42 C         3.555947   0.521622   0.018913 C.3        1 UNL1     0.0661
     43 C         8.905793   -5.763192   2.831321 C.2        1 UNL1     0.2131
     44 O         9.485686   -6.711951   3.327625 O.2        1 UNL1     -0.2851
     45 O         9.324859   -7.808314   0.958691 O.3        1 UNL1     -0.5056
     46 O         4.982454   -3.098771   -0.155221 O.2        1 UNL1     -0.2836
     47 C         5.767358   1.185447   -1.317804 C.3        1 UNL1     -0.0566
     48 O         3.614224   1.957441   0.385169 O.3        1 UNL1     -0.3909
     49 C         0.910359   0.265294   0.473799 C.3        1 UNL1     -0.0577
     50 O         2.137868   -0.840119   -2.731043 O.3        1 UNL1     -0.3910
     51 O         0.482705   -3.090729   -3.29676 O.3        1 UNL1     -0.3753
     52 C         0.766241   -2.770129   0.434312 C.3        1 UNL1     -0.0564
     53 O         -1.902421   -1.01795   -0.287141 O.3        1 UNL1     -0.4608
     54 C         -2.184453   0.308742   -0.0915 C.2        1 UNL1     0.3042
     55 O         -1.730593   1.048014   0.781041 O.2        1 UNL1     -0.2512
     56 C         -3.115024   0.883933   -1.121018 C.3        1 UNL1     0.0332
     57 C         -0.785406   -0.931681   -3.820966 C.3        1 UNL1     -0.0567
     58 C         3.570566   -6.060685   -0.456414 C.3        1 UNL1     0.0210
     59 C         -0.403951   -3.766492   -4.187294 C.3        1 UNL1     0.0372
     60 C         1.997046   -3.983969   -1.773037 C.2        1 UNL1     -0.0208
     61 C         3.046021   -3.910298   -2.593383 C.2        1 UNL1     0.0882
     62 H         5.222598   -0.731141   -0.534066 H        1 UNL1     0.0365
     63 H         6.987694   -1.39615   0.248511 H        1 UNL1     0.0576
     64 H         8.28588   0.745583   2.044191 H        1 UNL1     0.0615
     65 H         9.044701   -2.208442   1.369074 H        1 UNL1     0.0622
     66 H         0.029952   -4.610232   -2.014849 H        1 UNL1     0.0645
     67 H         -0.910066   -3.49856   -0.471879 H        1 UNL1     0.0362
     68 H         -1.759412   -2.092274   -1.926852 H        1 UNL1     0.0741
     69 H         -0.928157   0.397434   -2.296662 H        1 UNL1     0.0359
     70 H         1.195767   0.925261   -2.75476 H        1 UNL1     0.0600
     71 H         1.647759   1.699254   -0.779576 H        1 UNL1     0.0348
     72 H         3.646588   0.336398   -1.061269 H        1 UNL1     0.0602
     73 H         2.098046   -4.446536   -0.822732 H        1 UNL1     0.0628
     74 H         3.039995   -3.401524   -3.557929 H        1 UNL1     0.1022
     75 H         11.559772   -0.092556   3.81147 H        1 UNL1     0.0279
     76 H         10.582524   -0.801792   5.034282 H        1 UNL1     0.0279
     77 H         12.007117   -1.665635   4.327452 H        1 UNL1     0.0279
     78 H         9.63175   -3.26979   4.842064 H        1 UNL1     0.1553
     79 H         8.030422   -2.108401   4.727393 H        1 UNL1     0.1484
     80 H         4.255726   -2.485099   4.50545 H        1 UNL1     0.0317
     81 H         5.342115   -3.860838   4.635932 H        1 UNL1     0.0317
     82 H         6.792162   -2.634355   6.27508 H        1 UNL1     0.0428
     83 H         5.128358   -2.756224   6.802913 H        1 UNL1     0.0428
     84 H         6.309865   0.945776   5.070175 H        1 UNL1     0.0428
     85 H         7.536599   -0.264843   5.206733 H        1 UNL1     0.0428
     86 H         6.447555   -0.005044   2.977083 H        1 UNL1     0.0317
     87 H         4.899314   -0.384151   3.578398 H        1 UNL1     0.0317
     88 H         6.700685   -0.772415   7.903323 H        1 UNL1     0.0429
     89 H         6.007897   0.77752   7.419608 H        1 UNL1     0.0429
     90 H         4.770233   -1.565916   8.84064 H        1 UNL1     0.0308
     91 H         4.307635   1.46419   8.807261 H        1 UNL1     0.0233
     92 H         3.273424   0.337022   9.72126 H        1 UNL1     0.0233
     93 H         4.968887   0.502911   10.124361 H        1 UNL1     0.0233
     94 H         2.462275   -0.792306   7.922037 H        1 UNL1     0.0233
     95 H         3.40309   -0.248505   6.524369 H        1 UNL1     0.0233
     96 H         3.430494   -1.961878   7.001435 H        1 UNL1     0.0233
     97 H         6.47735   -8.777038   -1.321489 H        1 UNL1     0.0280
     98 H         7.750725   -8.133464   -2.322246 H        1 UNL1     0.0280
     99 H         8.162937   -9.090696   -0.868451 H        1 UNL1     0.0280
     100 H         10.156518   -7.40825   1.142853 H        1 UNL1     0.2922
     101 H         5.579961   0.658721   -2.25327 H        1 UNL1     0.0236
     102 H         6.780929   1.581851   -1.267588 H        1 UNL1     0.0236
     103 H         5.119104   2.076437   -1.363597 H        1 UNL1     0.0236
     104 H         3.672448   2.011257   1.359173 H        1 UNL1     0.2098
     105 H         1.229769   -0.580214   1.077872 H        1 UNL1     0.0234
     106 H         0.632583   1.102999   1.113344 H        1 UNL1     0.0234
     107 H         -0.0   0.0   0.0 H        1 UNL1     0.0234
     108 H         1.821841   -1.753348   -2.589949 H        1 UNL1     0.2098
     109 H         0.961744   -3.769529   0.847458 H        1 UNL1     0.0234
     110 H         1.71524   -2.245528   0.279598 H        1 UNL1     0.0234
     111 H         0.27831   -2.205644   1.240058 H        1 UNL1     0.0234
     112 H         -3.281541   1.946549   -0.919861 H        1 UNL1     0.0342
     113 H         -2.748815   0.730955   -2.135085 H        1 UNL1     0.0342
     114 H         -4.081975   0.369352   -1.035131 H        1 UNL1     0.0342
     115 H         0.065293   -1.307938   -4.405714 H        1 UNL1     0.0234
     116 H         -1.570041   -1.690007   -3.857544 H        1 UNL1     0.0234
     117 H         -1.108426   -0.077254   -4.440284 H        1 UNL1     0.0234
     118 H         2.620539   -6.190606   -1.003748 H        1 UNL1     0.0309
     119 H         3.940011   -7.042025   -0.142273 H        1 UNL1     0.0309
     120 H         3.265399   -5.543952   0.460083 H        1 UNL1     0.0309
     121 H         -0.061026   -3.573493   -5.203419 H        1 UNL1     0.0524
     122 H         -0.396418   -4.858811   -4.036231 H        1 UNL1     0.0524
     123 H         -1.41825   -3.399657   -4.057971 H        1 UNL1     0.0524
@<TRIPOS>BOND
     1     1     2    1
     2     1    42    1
     3     2     3    2
     4     3     4    1
     5     4     5    2
     6     5     7    1
     7     6    75    1
     8     6    76    1
     9     6    77    1
    10     7     9   am
    11     9    10    1
    12    10    11    2
    13    10    43    1
    14    11    14    1
    15    11    15    1
    16    12    13   ar
    17    12    27   ar
    18    12    43    1
    19    13    14    1
    20    13    30   ar
    21    14    17    2
    22    15    16    1
    23    16    17    1
    24    16    18    1
    25    16    22    1
    26    18    19    1
    27    19    20    1
    28    20    21    1
    29    21    22    1
    30    23    24    1
    31    23    88    1
    32    23    89    1
    33    24    25    1
    34    24    26    1
    35    24    90    1
    36    25    91    1
    37    25    92    1
    38    25    93    1
    39    26    94    1
    40    26    95    1
    41    26    96    1
    42    27    28   ar
    43    28    29   ar
    44    29    30   ar
    45    29    31    1
    46    30    33    1
    47    31    32    1
    48    32    33    1
    49    32    35    1
    50    34    97    1
    51    34    98    1
    52    34    99    1
    53    35    61    1
    54    36    37    1
    55    36    60    1
    56    37    38    1
    57    38    39    1
    58    39    40    1
    59    40    41    1
    60    41    42    1
    61    45   100    1
    62    47   101    1
    63    47   102    1
    64    47   103    1
    65    48   104    1
    66    49   105    1
    67    49   106    1
    68    49   107    1
    69    50   108    1
    70    51    59    1
    71    52   109    1
    72    52   110    1
    73    52   111    1
    74    53    54    1
    75    54    55    2
    76    54    56    1
    77    56   112    1
    78    56   113    1
    79    56   114    1
    80    57   115    1
    81    57   116    1
    82    57   117    1
    83    58   118    1
    84    58   119    1
    85    58   120    1
    86    59   121    1
    87    59   122    1
    88    59   123    1
    89    60    61    2
    90     1    47    1
    91     1    62    1
    92     2    63    1
    93     3    64    1
    94     4    65    1
    95     5     6    1
    96     7     8    2
    97     9    78    1
    98    15    79    1
    99    18    80    1
   100    18    81    1
   101    19    82    1
   102    19    83    1
   103    20    23    1
   104    21    84    1
   105    21    85    1
   106    22    86    1
   107    22    87    1
   108    27    45    1
   109    28    34    1
   110    32    58    1
   111    33    46    2
   112    36    51    1
   113    36    66    1
   114    37    52    1
   115    37    67    1
   116    38    53    1
   117    38    68    1
   118    42    48    1
   119    42    72    1
   120    43    44    2
   121    60    73    1
   122    61    74    1
   123    39    69    1
   124    39    57    1
   125    40    70    1
   126    40    50    1
   127    41    71    1
   128    41    49    1
