@<TRIPOS>MOLECULE
*****
 123 128 0 0 0
SMALL
GASTEIGER

@<TRIPOS>ATOM
     1 C         0.256256   0.014894   4.119284 C.3        1 UNL1     0.0009
     2 C         -0.939264   -0.723825   5.328442 C.2        1 UNL1     -0.0787
     3 C         -2.06022   -0.580651   6.233431 C.2        1 UNL1     -0.0649
     4 C         -2.878248   -1.799055   7.077634 C.2        1 UNL1     -0.0542
     5 C         -4.077205   -2.141365   7.750244 C.2        1 UNL1     0.0115
     6 C         -5.407974   -1.57219   8.314528 C.3        1 UNL1     -0.0348
     7 C         -4.411941   -3.691209   8.001096 C.2        1 UNL1     0.2441
     8 O         -4.254146   -4.23936   9.083296 O.2        1 UNL1     -0.2702
     9 N         -5.141596   -4.310342   6.971325 N.am        1 UNL1     -0.2772
     10 C         -4.28977   -4.817171   6.016947 C.2        1 UNL1     0.1049
     11 C         -3.858796   -3.961421   5.108005 C.2        1 UNL1     0.0801
     12 C         -2.233249   -6.212846   5.733844 C.ar        1 UNL1     0.0753
     13 C         -1.722081   -5.154108   4.917516 C.ar        1 UNL1     0.0305
     14 C         -2.572576   -4.052701   4.471857 C.2        1 UNL1     0.0924
     15 N         -4.275692   -2.714418   4.829239 N.pl3        1 UNL1     -0.3170
     16 C         -3.595414   -2.279622   3.638261 C.3        1 UNL1     0.1275
     17 N         -2.298169   -3.050899   3.641183 N.2        1 UNL1     -0.2557
     18 C         -4.393989   -2.798645   2.446374 C.3        1 UNL1     0.0016
     19 C         -5.826223   -2.303078   2.567654 C.3        1 UNL1     0.0026
     20 N         -5.816433   -0.847047   2.597742 N.3        1 UNL1     -0.3018
     21 C         -5.021959   -0.252777   3.674786 C.3        1 UNL1     0.0026
     22 C         -3.586172   -0.760431   3.530921 C.3        1 UNL1     0.0016
     23 C         -7.132867   -0.270263   2.410753 C.3        1 UNL1     0.0012
     24 C         -7.610447   -0.475672   0.964558 C.3        1 UNL1     -0.0339
     25 C         -8.504096   -1.720524   0.838886 C.3        1 UNL1     -0.0615
     26 C         -8.318059   0.77292   0.467484 C.3        1 UNL1     -0.0615
     27 C         -1.450464   -7.319542   6.054139 C.ar        1 UNL1     0.1347
     28 C         -0.160877   -7.497184   5.585673 C.ar        1 UNL1     0.0342
     29 C         0.338362   -6.419217   4.824154 C.ar        1 UNL1     0.1435
     30 C         -0.421737   -5.287752   4.525394 C.ar        1 UNL1     0.0774
     31 O         1.53733   -6.488942   4.205591 O.3        1 UNL1     -0.4436
     32 C         1.482865   -5.472389   3.193401 C.3        1 UNL1     0.3143
     33 C         0.436451   -4.488398   3.676093 C.2        1 UNL1     0.2504
     34 C         0.64399   -8.763607   5.677662 C.3        1 UNL1     -0.0327
     35 O         2.740556   -4.785981   3.210942 O.2        1 UNL1     -0.4528
     36 C         3.325499   -3.594477   -0.345214 C.3        1 UNL1     0.0854
     37 C         2.420249   -2.671058   -1.248177 C.3        1 UNL1     0.0236
     38 C         3.154655   -1.372885   -1.837361 C.3        1 UNL1     0.1131
     39 C         3.95727   -0.416304   -0.866262 C.3        1 UNL1     0.0200
     40 C         3.318912   0.014279   0.613446 C.3        1 UNL1     0.0661
     41 C         1.75585   0.615127   0.884425 C.3        1 UNL1     0.0091
     42 C         0.638054   0.41706   2.325502 C.3        1 UNL1     0.0661
     43 C         -3.65439   -6.136183   6.15425 C.2        1 UNL1     0.2131
     44 O         -4.308842   -7.105046   6.494447 O.2        1 UNL1     -0.2851
     45 O         -2.008156   -8.283602   6.8914 O.3        1 UNL1     -0.5056
     46 O         0.344718   -3.306001   3.43242 O.2        1 UNL1     -0.2836
     47 C         1.328831   0.853419   4.865233 C.3        1 UNL1     -0.0566
     48 O         0.297374   1.858212   2.403818 O.3        1 UNL1     -0.3909
     49 C         0.922033   0.383149   -0.355909 C.3        1 UNL1     -0.0577
     50 O         3.645094   -0.945504   1.598405 O.3        1 UNL1     -0.3910
     51 O         4.600306   -3.084429   -0.025608 O.3        1 UNL1     -0.3753
     52 C         0.941556   -2.631341   -0.741383 C.3        1 UNL1     -0.0564
     53 O         2.401177   -0.711617   -2.954197 O.3        1 UNL1     -0.4608
     54 C         2.569772   0.583329   -3.369674 C.2        1 UNL1     0.3042
     55 O         1.772685   1.51376   -3.256588 O.2        1 UNL1     -0.2512
     56 C         3.919135   0.850329   -3.973531 C.3        1 UNL1     0.0332
     57 C         5.493623   -0.858367   -0.914998 C.3        1 UNL1     -0.0567
     58 C         0.965247   -6.161127   1.909173 C.3        1 UNL1     0.0210
     59 C         5.599638   -4.074637   0.212484 C.3        1 UNL1     0.0372
     60 C         2.702653   -4.026713   0.935565 C.2        1 UNL1     -0.0208
     61 C         3.2048   -4.067781   2.170436 C.2        1 UNL1     0.0882
     62 H         0.688261   -0.981538   3.966944 H        1 UNL1     0.0365
     63 H         -0.561326   -1.746522   5.389463 H        1 UNL1     0.0576
     64 H         -2.603114   0.362495   6.327505 H        1 UNL1     0.0615
     65 H         -2.218795   -2.666495   6.987338 H        1 UNL1     0.0622
     66 H         3.463124   -4.510103   -0.937442 H        1 UNL1     0.0645
     67 H         2.258988   -3.26644   -2.163642 H        1 UNL1     0.0362
     68 H         3.91781   -1.861098   -2.462472 H        1 UNL1     0.0741
     69 H         4.09274   0.54011   -1.353425 H        1 UNL1     0.0359
     70 H         3.960231   0.884282   0.851909 H        1 UNL1     0.0600
     71 H         1.952012   1.703006   0.813735 H        1 UNL1     0.0348
     72 H         1.648119   0.18061   2.690436 H        1 UNL1     0.0602
     73 H         1.752468   -4.455668   0.734577 H        1 UNL1     0.0628
     74 H         4.143489   -3.600657   2.470262 H        1 UNL1     0.1022
     75 H         -5.474115   -0.472984   8.12904 H        1 UNL1     0.0279
     76 H         -6.324797   -1.941901   7.860855 H        1 UNL1     0.0279
     77 H         -5.454884   -1.609941   9.412742 H        1 UNL1     0.0279
     78 H         -5.739145   -3.624078   6.515194 H        1 UNL1     0.1553
     79 H         -5.167151   -2.349317   5.110192 H        1 UNL1     0.1484
     80 H         -3.924833   -2.444908   1.520345 H        1 UNL1     0.0317
     81 H         -4.374775   -3.893132   2.409234 H        1 UNL1     0.0317
     82 H         -6.325247   -2.714027   3.457603 H        1 UNL1     0.0428
     83 H         -6.378325   -2.686098   1.708859 H        1 UNL1     0.0428
     84 H         -4.966057   0.839212   3.627406 H        1 UNL1     0.0428
     85 H         -5.457209   -0.455008   4.663208 H        1 UNL1     0.0428
     86 H         -3.009725   -0.205712   4.247848 H        1 UNL1     0.0317
     87 H         -3.170085   -0.439827   2.568019 H        1 UNL1     0.0317
     88 H         -7.829949   -0.784347   3.085355 H        1 UNL1     0.0429
     89 H         -7.145123   0.79257   2.684632 H        1 UNL1     0.0429
     90 H         -6.738014   -0.604923   0.313122 H        1 UNL1     0.0308
     91 H         -9.372792   -1.654978   1.500833 H        1 UNL1     0.0233
     92 H         -8.846569   -1.847849   -0.19073 H        1 UNL1     0.0233
     93 H         -7.973359   -2.643807   1.100996 H        1 UNL1     0.0233
     94 H         -8.822797   0.567988   -0.48282 H        1 UNL1     0.0233
     95 H         -9.075929   1.085979   1.191079 H        1 UNL1     0.0233
     96 H         -7.614577   1.596156   0.314631 H        1 UNL1     0.0233
     97 H         1.6155   -8.664352   5.202744 H        1 UNL1     0.0280
     98 H         0.845899   -9.050988   6.717807 H        1 UNL1     0.0280
     99 H         0.099292   -9.583872   5.182117 H        1 UNL1     0.0280
     100 H         -1.990437   -9.159092   6.546689 H        1 UNL1     0.2922
     101 H         2.050349   1.247559   4.149885 H        1 UNL1     0.0236
     102 H         1.812065   0.308233   5.675319 H        1 UNL1     0.0236
     103 H         0.895626   1.746117   5.346498 H        1 UNL1     0.0236
     104 H         0.901613   2.269303   3.052563 H        1 UNL1     0.2098
     105 H         0.709721   1.282225   -0.928969 H        1 UNL1     0.0234
     106 H         1.291498   -0.404696   -1.012204 H        1 UNL1     0.0234
     107 H         0.0   -0.0   0.0 H        1 UNL1     0.0234
     108 H         3.2071   -1.780984   1.345618 H        1 UNL1     0.2098
     109 H         0.864566   -2.253807   0.287817 H        1 UNL1     0.0234
     110 H         0.278232   -2.053715   -1.39414 H        1 UNL1     0.0234
     111 H         0.492345   -3.63328   -0.724833 H        1 UNL1     0.0234
     112 H         3.989661   1.898949   -4.278109 H        1 UNL1     0.0342
     113 H         4.730276   0.584473   -3.297354 H        1 UNL1     0.0342
     114 H         4.02042   0.230286   -4.874893 H        1 UNL1     0.0342
     115 H         5.912149   -0.769881   -1.927023 H        1 UNL1     0.0234
     116 H         6.140099   -0.292053   -0.241644 H        1 UNL1     0.0234
     117 H         5.64902   -1.932192   -0.713273 H        1 UNL1     0.0234
     118 H         1.773618   -6.673967   1.359138 H        1 UNL1     0.0309
     119 H         0.154796   -6.871828   2.09963 H        1 UNL1     0.0309
     120 H         0.575497   -5.445971   1.176539 H        1 UNL1     0.0309
     121 H         5.283848   -4.66104   1.074902 H        1 UNL1     0.0524
     122 H         5.712172   -4.768258   -0.637377 H        1 UNL1     0.0524
     123 H         6.557365   -3.601933   0.410992 H        1 UNL1     0.0524
@<TRIPOS>BOND
     1     1     2    1
     2     1    42    1
     3     2     3    2
     4     3     4    1
     5     4     5    2
     6     5     7    1
     7     6    75    1
     8     6    76    1
     9     6    77    1
    10     7     9   am
    11     9    10    1
    12    10    11    2
    13    10    43    1
    14    11    14    1
    15    11    15    1
    16    12    13   ar
    17    12    27   ar
    18    12    43    1
    19    13    14    1
    20    13    30   ar
    21    14    17    2
    22    15    16    1
    23    16    17    1
    24    16    18    1
    25    16    22    1
    26    18    19    1
    27    19    20    1
    28    20    21    1
    29    21    22    1
    30    23    24    1
    31    23    88    1
    32    23    89    1
    33    24    25    1
    34    24    26    1
    35    24    90    1
    36    25    91    1
    37    25    92    1
    38    25    93    1
    39    26    94    1
    40    26    95    1
    41    26    96    1
    42    27    28   ar
    43    28    29   ar
    44    29    30   ar
    45    29    31    1
    46    30    33    1
    47    31    32    1
    48    32    33    1
    49    32    35    1
    50    34    97    1
    51    34    98    1
    52    34    99    1
    53    35    61    1
    54    36    37    1
    55    36    60    1
    56    37    38    1
    57    38    39    1
    58    39    40    1
    59    40    41    1
    60    41    42    1
    61    45   100    1
    62    47   101    1
    63    47   102    1
    64    47   103    1
    65    48   104    1
    66    49   105    1
    67    49   106    1
    68    49   107    1
    69    50   108    1
    70    51    59    1
    71    52   109    1
    72    52   110    1
    73    52   111    1
    74    53    54    1
    75    54    55    2
    76    54    56    1
    77    56   112    1
    78    56   113    1
    79    56   114    1
    80    57   115    1
    81    57   116    1
    82    57   117    1
    83    58   118    1
    84    58   119    1
    85    58   120    1
    86    59   121    1
    87    59   122    1
    88    59   123    1
    89    60    61    2
    90     1    47    1
    91     1    62    1
    92     2    63    1
    93     3    64    1
    94     4    65    1
    95     5     6    1
    96     7     8    2
    97     9    78    1
    98    15    79    1
    99    18    80    1
   100    18    81    1
   101    19    82    1
   102    19    83    1
   103    20    23    1
   104    21    84    1
   105    21    85    1
   106    22    86    1
   107    22    87    1
   108    27    45    1
   109    28    34    1
   110    32    58    1
   111    33    46    2
   112    36    51    1
   113    36    66    1
   114    37    52    1
   115    37    67    1
   116    38    53    1
   117    38    68    1
   118    42    48    1
   119    42    72    1
   120    43    44    2
   121    60    73    1
   122    61    74    1
   123    39    69    1
   124    39    57    1
   125    40    70    1
   126    40    50    1
   127    41    71    1
   128    41    49    1
