@<TRIPOS>MOLECULE
*****
 123 128 0 0 0
SMALL
GASTEIGER

@<TRIPOS>ATOM
     1 C         0.733881   -3.172168   2.822214 C.3        1 UNL1     0.0009
     2 C         0.933151   -4.983471   2.480874 C.2        1 UNL1     -0.0787
     3 C         0.420315   -6.336184   2.537551 C.2        1 UNL1     -0.0649
     4 C         1.103656   -7.736684   1.875733 C.2        1 UNL1     -0.0542
     5 C         0.849452   -9.065255   1.454595 C.2        1 UNL1     0.0115
     6 C         -0.205566   -10.205524   1.461425 C.3        1 UNL1     -0.0348
     7 C         1.902271   -9.786374   0.48066 C.2        1 UNL1     0.2441
     8 O         2.714096   -10.612925   0.873443 O.2        1 UNL1     -0.2702
     9 N         1.657884   -9.601385   -0.891275 N.am        1 UNL1     -0.2772
     10 C         2.275826   -8.456391   -1.339002 C.2        1 UNL1     0.1049
     11 C         1.623443   -7.325948   -1.137216 C.2        1 UNL1     0.0801
     12 C         4.463341   -7.24335   -1.313701 C.ar        1 UNL1     0.0753
     13 C         3.729431   -6.089712   -0.890494 C.ar        1 UNL1     0.0305
     14 C         2.268772   -6.06023   -0.91612 C.2        1 UNL1     0.0924
     15 N         0.352749   -7.11899   -0.751169 N.pl3        1 UNL1     -0.3170
     16 C         0.087822   -5.708187   -0.849674 C.3        1 UNL1     0.1275
     17 N         1.435428   -5.056375   -0.657779 N.2        1 UNL1     -0.2557
     18 C         -0.318399   -5.424066   -2.292575 C.3        1 UNL1     0.0016
     19 C         -1.50068   -6.311206   -2.648643 C.3        1 UNL1     0.0026
     20 N         -2.594038   -6.024347   -1.730325 N.3        1 UNL1     -0.3018
     21 C         -2.279548   -6.209257   -0.312131 C.3        1 UNL1     0.0026
     22 C         -1.092303   -5.305468   0.02478 C.3        1 UNL1     0.0016
     23 C         -3.856388   -6.590699   -2.162022 C.3        1 UNL1     0.0012
     24 C         -3.618976   -7.759574   -3.131106 C.3        1 UNL1     -0.0339
     25 C         -2.241282   -7.659294   -3.806354 C.3        1 UNL1     -0.0615
     26 C         -3.790164   -9.081945   -2.403914 C.3        1 UNL1     -0.0615
     27 C         5.853315   -7.222452   -1.401186 C.ar        1 UNL1     0.1347
     28 C         6.613165   -6.098341   -1.130905 C.ar        1 UNL1     0.0342
     29 C         5.872955   -4.989286   -0.669114 C.ar        1 UNL1     0.1435
     30 C         4.483452   -5.006926   -0.541867 C.ar        1 UNL1     0.0774
     31 O         6.455676   -3.787056   -0.468904 O.3        1 UNL1     -0.4436
     32 C         5.367682   -2.850549   -0.478779 C.3        1 UNL1     0.3143
     33 C         4.140962   -3.664667   -0.120195 C.2        1 UNL1     0.2504
     34 C         8.073771   -5.925653   -1.442209 C.3        1 UNL1     -0.0327
     35 O         5.587435   -1.930922   0.597904 O.2        1 UNL1     -0.4528
     36 C         4.030117   1.351118   -0.502581 C.3        1 UNL1     0.0854
     37 C         2.544963   1.652045   -0.939939 C.3        1 UNL1     0.0236
     38 C         1.823215   2.825424   -0.11896 C.3        1 UNL1     0.1131
     39 C         1.837284   2.800533   1.462638 C.3        1 UNL1     0.0200
     40 C         1.549225   1.379803   2.287856 C.3        1 UNL1     0.0661
     41 C         0.252038   0.320184   2.019296 C.3        1 UNL1     0.0091
     42 C         0.150424   -1.503599   2.189273 C.3        1 UNL1     0.0661
     43 C         3.689783   -8.435071   -1.742267 C.2        1 UNL1     0.2131
     44 O         4.138317   -9.30295   -2.469137 O.2        1 UNL1     -0.2851
     45 O         6.493799   -8.401283   -1.777453 O.3        1 UNL1     -0.5056
     46 O         3.119748   -3.293281   0.413703 O.2        1 UNL1     -0.2836
     47 C         0.933014   -2.883292   4.334457 C.3        1 UNL1     -0.0566
     48 O         -1.1235   -1.476091   2.947875 O.3        1 UNL1     -0.3909
     49 C         -0.406708   0.678288   0.705786 C.3        1 UNL1     -0.0577
     50 O         2.745643   0.646173   2.455465 O.3        1 UNL1     -0.3910
     51 O         4.478457   2.018261   0.655583 O.3        1 UNL1     -0.3753
     52 C         1.789926   0.35171   -1.368887 C.3        1 UNL1     -0.0564
     53 O         0.566625   3.327427   -0.768038 O.3        1 UNL1     -0.4608
     54 C         0.129402   4.626123   -0.75561 C.2        1 UNL1     0.3042
     55 O         -0.626686   5.151857   0.060339 O.2        1 UNL1     -0.2512
     56 C         0.715365   5.468482   -1.852785 C.3        1 UNL1     0.0332
     57 C         3.060149   3.709807   1.948433 C.3        1 UNL1     -0.0567
     58 C         5.229375   -2.356101   -1.937519 C.3        1 UNL1     0.0210
     59 C         5.269074   3.180309   0.409746 C.3        1 UNL1     0.0372
     60 C         4.351844   -0.090422   -0.319233 C.2        1 UNL1     -0.0208
     61 C         5.022406   -0.709584   0.653253 C.2        1 UNL1     0.0882
     62 H         1.702363   -2.99419   2.339432 H        1 UNL1     0.0365
     63 H         1.949554   -5.004902   2.082208 H        1 UNL1     0.0576
     64 H         -0.588894   -6.551208   2.895835 H        1 UNL1     0.0615
     65 H         2.124636   -7.435527   1.625957 H        1 UNL1     0.0622
     66 H         4.641715   1.690905   -1.350248 H        1 UNL1     0.0645
     67 H         2.64751   2.113212   -1.93762 H        1 UNL1     0.0362
     68 H         2.467053   3.671714   -0.403188 H        1 UNL1     0.0741
     69 H         1.053046   3.450107   1.827924 H        1 UNL1     0.0359
     70 H         1.329899   1.784943   3.294245 H        1 UNL1     0.0600
     71 H         -0.480249   0.722967   2.746262 H        1 UNL1     0.0348
     72 H         1.024112   -1.192184   2.78004 H        1 UNL1     0.0602
     73 H         4.065186   -0.62576   -1.190146 H        1 UNL1     0.0628
     74 H         5.300916   -0.247626   1.601021 H        1 UNL1     0.1022
     75 H         -0.459511   -10.498369   2.508701 H        1 UNL1     0.0279
     76 H         -1.180368   -9.967056   1.041946 H        1 UNL1     0.0279
     77 H         0.187946   -11.151389   1.061188 H        1 UNL1     0.0279
     78 H         0.658285   -9.491674   -1.048894 H        1 UNL1     0.1553
     79 H         -0.368804   -7.813435   -0.814744 H        1 UNL1     0.1484
     80 H         -0.571337   -4.361396   -2.390151 H        1 UNL1     0.0317
     81 H         0.514982   -5.61212   -2.977968 H        1 UNL1     0.0317
     82 H         -1.231809   -7.377495   -2.623178 H        1 UNL1     0.0428
     83 H         -1.772844   -6.093741   -3.681932 H        1 UNL1     0.0428
     84 H         -3.090633   -5.911176   0.359509 H        1 UNL1     0.0428
     85 H         -2.104547   -7.265862   -0.066616 H        1 UNL1     0.0428
     86 H         -0.976119   -5.365504   1.091028 H        1 UNL1     0.0317
     87 H         -1.36144   -4.255376   -0.142461 H        1 UNL1     0.0317
     88 H         -4.380354   -6.972263   -1.275927 H        1 UNL1     0.0429
     89 H         -4.502467   -5.826886   -2.613626 H        1 UNL1     0.0429
     90 H         -4.391247   -7.743514   -3.909279 H        1 UNL1     0.0308
     91 H         -2.295238   -7.936891   -4.863298 H        1 UNL1     0.0233
     92 H         -1.84244   -6.645705   -3.721673 H        1 UNL1     0.0233
     93 H         -1.499277   -8.319709   -3.34147 H        1 UNL1     0.0233
     94 H         -2.949894   -9.747879   -2.62822 H        1 UNL1     0.0233
     95 H         -3.808474   -8.914503   -1.323363 H        1 UNL1     0.0233
     96 H         -4.716401   -9.582773   -2.699253 H        1 UNL1     0.0233
     97 H         8.603447   -6.8736   -1.45056 H        1 UNL1     0.0280
     98 H         8.236046   -5.481979   -2.433207 H        1 UNL1     0.0280
     99 H         8.538857   -5.276618   -0.682246 H        1 UNL1     0.0280
     100 H         6.203403   -9.168846   -1.316866 H        1 UNL1     0.2922
     101 H         0.983951   -1.807292   4.499637 H        1 UNL1     0.0236
     102 H         1.78994   -3.403573   4.761036 H        1 UNL1     0.0236
     103 H         0.072299   -3.218485   4.936959 H        1 UNL1     0.0236
     104 H         -0.901377   -1.370497   3.893645 H        1 UNL1     0.2098
     105 H         -1.487181   0.558586   0.6979 H        1 UNL1     0.0234
     106 H         -0.132055   1.656076   0.310283 H        1 UNL1     0.0234
     107 H         0.0   0.0   -0.0 H        1 UNL1     0.0234
     108 H         2.573178   -0.040244   3.128411 H        1 UNL1     0.2098
     109 H         0.917957   0.566743   -2.002245 H        1 UNL1     0.0234
     110 H         2.436817   -0.3759   -1.870744 H        1 UNL1     0.0234
     111 H         1.398839   -0.194455   -0.500152 H        1 UNL1     0.0234
     112 H         0.475844   5.030504   -2.826515 H        1 UNL1     0.0342
     113 H         0.381525   6.503519   -1.797162 H        1 UNL1     0.0342
     114 H         1.808426   5.46485   -1.741571 H        1 UNL1     0.0342
     115 H         2.732338   4.501857   2.635735 H        1 UNL1     0.0234
     116 H         3.85733   3.153205   2.445168 H        1 UNL1     0.0234
     117 H         3.514549   4.305452   1.138082 H        1 UNL1     0.0234
     118 H         6.053575   -1.680558   -2.226212 H        1 UNL1     0.0309
     119 H         5.164563   -3.172669   -2.663617 H        1 UNL1     0.0309
     120 H         4.334707   -1.742664   -2.090394 H        1 UNL1     0.0309
     121 H         5.004576   3.924003   1.160956 H        1 UNL1     0.0524
     122 H         6.349062   2.979793   0.506984 H        1 UNL1     0.0524
     123 H         5.070389   3.566311   -0.586056 H        1 UNL1     0.0524
@<TRIPOS>BOND
     1     1     2    1
     2     1    42    1
     3     2     3    2
     4     3     4    1
     5     4     5    2
     6     5     7    1
     7     6    75    1
     8     6    76    1
     9     6    77    1
    10     7     9   am
    11     9    10    1
    12    10    11    2
    13    10    43    1
    14    11    14    1
    15    11    15    1
    16    12    13   ar
    17    12    27   ar
    18    12    43    1
    19    13    14    1
    20    13    30   ar
    21    14    17    2
    22    15    16    1
    23    16    17    1
    24    16    18    1
    25    16    22    1
    26    18    19    1
    27    19    20    1
    28    20    21    1
    29    21    22    1
    30    23    24    1
    31    23    88    1
    32    23    89    1
    33    24    25    1
    34    24    26    1
    35    24    90    1
    36    25    91    1
    37    25    92    1
    38    25    93    1
    39    26    94    1
    40    26    95    1
    41    26    96    1
    42    27    28   ar
    43    28    29   ar
    44    29    30   ar
    45    29    31    1
    46    30    33    1
    47    31    32    1
    48    32    33    1
    49    32    35    1
    50    34    97    1
    51    34    98    1
    52    34    99    1
    53    35    61    1
    54    36    37    1
    55    36    60    1
    56    37    38    1
    57    38    39    1
    58    39    40    1
    59    40    41    1
    60    41    42    1
    61    45   100    1
    62    47   101    1
    63    47   102    1
    64    47   103    1
    65    48   104    1
    66    49   105    1
    67    49   106    1
    68    49   107    1
    69    50   108    1
    70    51    59    1
    71    52   109    1
    72    52   110    1
    73    52   111    1
    74    53    54    1
    75    54    55    2
    76    54    56    1
    77    56   112    1
    78    56   113    1
    79    56   114    1
    80    57   115    1
    81    57   116    1
    82    57   117    1
    83    58   118    1
    84    58   119    1
    85    58   120    1
    86    59   121    1
    87    59   122    1
    88    59   123    1
    89    60    61    2
    90     1    47    1
    91     1    62    1
    92     2    63    1
    93     3    64    1
    94     4    65    1
    95     5     6    1
    96     7     8    2
    97     9    78    1
    98    15    79    1
    99    18    80    1
   100    18    81    1
   101    19    82    1
   102    19    83    1
   103    20    23    1
   104    21    84    1
   105    21    85    1
   106    22    86    1
   107    22    87    1
   108    27    45    1
   109    28    34    1
   110    32    58    1
   111    33    46    2
   112    36    51    1
   113    36    66    1
   114    37    52    1
   115    37    67    1
   116    38    53    1
   117    38    68    1
   118    42    48    1
   119    42    72    1
   120    43    44    2
   121    60    73    1
   122    61    74    1
   123    39    69    1
   124    39    57    1
   125    40    70    1
   126    40    50    1
   127    41    71    1
   128    41    49    1
