@<TRIPOS>MOLECULE
*****
 123 128 0 0 0
SMALL
GASTEIGER

@<TRIPOS>ATOM
     1 C         5.059935   2.0708   0.347282 C.3        1 UNL1     0.0009
     2 C         6.449473   2.887695   -0.568634 C.2        1 UNL1     -0.0787
     3 C         7.740895   2.812661   -1.218746 C.2        1 UNL1     -0.0649
     4 C         8.544   4.028317   -2.081045 C.2        1 UNL1     -0.0542
     5 C         9.551479   4.299985   -3.039305 C.2        1 UNL1     0.0115
     6 C         10.72515   3.6729   -3.840917 C.3        1 UNL1     -0.0348
     7 C         9.556869   5.725152   -3.778128 C.2        1 UNL1     0.2441
     8 O         10.322944   6.629249   -3.474378 O.2        1 UNL1     -0.2702
     9 N         8.805383   5.77609   -4.965067 N.am        1 UNL1     -0.2772
     10 C         7.497757   6.105837   -4.691747 C.2        1 UNL1     0.1049
     11 C         6.713464   5.112236   -4.315099 C.2        1 UNL1     0.0801
     12 C         6.086442   7.74646   -3.437205 C.ar        1 UNL1     0.0753
     13 C         5.397347   6.617055   -2.891127 C.ar        1 UNL1     0.0305
     14 C         5.603552   5.268501   -3.414514 C.2        1 UNL1     0.0924
     15 N         6.922502   3.785035   -4.352076 N.pl3        1 UNL1     -0.3170
     16 C         5.690947   3.135941   -3.988481 C.3        1 UNL1     0.1275
     17 N         4.985865   4.13295   -3.101602 N.2        1 UNL1     -0.2557
     18 C         4.847366   3.024826   -5.254865 C.3        1 UNL1     0.0016
     19 C         5.654611   2.291446   -6.314157 C.3        1 UNL1     0.0026
     20 N         6.009155   0.974409   -5.80353 N.3        1 UNL1     -0.3018
     21 C         6.770149   0.976833   -4.55243 C.3        1 UNL1     0.0026
     22 C         5.938746   1.714366   -3.501379 C.3        1 UNL1     0.0016
     23 C         6.515198   0.088063   -6.832585 C.3        1 UNL1     0.0012
     24 C         5.381365   -0.34623   -7.774694 C.3        1 UNL1     -0.0339
     25 C         5.588453   -1.784075   -8.278453 C.3        1 UNL1     -0.0615
     26 C         4.038846   -0.18409   -7.083222 C.3        1 UNL1     -0.0615
     27 C         5.796074   9.041973   -3.015953 C.ar        1 UNL1     0.1347
     28 C         4.813179   9.334885   -2.087422 C.ar        1 UNL1     0.0342
     29 C         4.181764   8.203881   -1.527682 C.ar        1 UNL1     0.1435
     30 C         4.487497   6.898181   -1.91355 C.ar        1 UNL1     0.0774
     31 O         3.128065   8.326821   -0.691255 O.3        1 UNL1     -0.4436
     32 C         2.488258   7.04209   -0.722695 C.3        1 UNL1     0.3143
     33 C         3.567881   6.072449   -1.159071 C.2        1 UNL1     0.2504
     34 C         4.275712   10.703551   -1.774403 C.3        1 UNL1     -0.0327
     35 O         2.144664   6.704192   0.626757 O.2        1 UNL1     -0.4528
     36 C         -0.964083   4.538229   0.397875 C.3        1 UNL1     0.0854
     37 C         -1.179882   3.184331   -0.381811 C.3        1 UNL1     0.0236
     38 C         -1.705298   1.963773   0.51592 C.3        1 UNL1     0.1131
     39 C         -0.958598   1.601172   1.862481 C.3        1 UNL1     0.0200
     40 C         0.708077   1.567742   1.921777 C.3        1 UNL1     0.0661
     41 C         1.725167   0.759725   0.830793 C.3        1 UNL1     0.0091
     42 C         3.410934   1.179328   0.241281 C.3        1 UNL1     0.0661
     43 C         7.0578   7.499814   -4.531686 C.2        1 UNL1     0.2131
     44 O         7.40563   8.352977   -5.327841 O.2        1 UNL1     -0.2851
     45 O         6.544316   10.081586   -3.564385 O.3        1 UNL1     -0.5056
     46 O         3.65988   4.889311   -0.919128 O.2        1 UNL1     -0.2836
     47 C         5.470206   1.800131   1.81983 C.3        1 UNL1     -0.0566
     48 O         3.948352   -0.186547   0.452662 O.3        1 UNL1     -0.3909
     49 C         0.918696   0.36211   -0.385349 C.3        1 UNL1     -0.0577
     50 O         1.225389   2.85249   2.203796 O.3        1 UNL1     -0.3910
     51 O         -1.088135   4.467956   1.80041 O.3        1 UNL1     -0.3753
     52 C         -0.117061   2.987858   -1.511749 C.3        1 UNL1     -0.0564
     53 O         -2.23197   0.810629   -0.287325 O.3        1 UNL1     -0.4608
     54 C         -2.54859   -0.426282   0.210403 C.2        1 UNL1     0.3042
     55 O         -1.885485   -1.458932   0.12229 O.2        1 UNL1     -0.2512
     56 C         -3.833505   -0.45064   0.988294 C.3        1 UNL1     0.0332
     57 C         -1.73226   2.333791   3.055331 C.3        1 UNL1     -0.0567
     58 C         1.409252   7.117723   -1.827935 C.3        1 UNL1     0.0210
     59 C         -2.262085   5.082298   2.329836 C.3        1 UNL1     0.0372
     60 C         0.323821   5.228448   0.114921 C.2        1 UNL1     -0.0208
     61 C         1.199178   5.798919   0.94381 C.2        1 UNL1     0.0882
     62 H         4.521102   3.025972   0.343065 H        1 UNL1     0.0365
     63 H         6.115247   3.927261   -0.560599 H        1 UNL1     0.0576
     64 H         8.261579   1.861383   -1.349385 H        1 UNL1     0.0615
     65 H         7.99613   4.937971   -1.82056 H        1 UNL1     0.0622
     66 H         -1.752297   5.203784   0.018664 H        1 UNL1     0.0645
     67 H         -2.058017   3.380306   -1.021368 H        1 UNL1     0.0362
     68 H         -2.681536   2.368575   0.823516 H        1 UNL1     0.0741
     69 H         -1.226303   0.592656   2.148203 H        1 UNL1     0.0359
     70 H         0.854133   0.998717   2.859827 H        1 UNL1     0.0600
     71 H         1.830364   -0.213519   1.349143 H        1 UNL1     0.0348
     72 H         3.265237   1.746539   1.172066 H        1 UNL1     0.0602
     73 H         0.438041   5.338038   -0.934932 H        1 UNL1     0.0628
     74 H         1.185661   5.68551   2.028335 H        1 UNL1     0.1022
     75 H         11.69105   4.163674   -3.570339 H        1 UNL1     0.0279
     76 H         10.935095   2.622517   -3.652002 H        1 UNL1     0.0279
     77 H         10.667115   3.887673   -4.918045 H        1 UNL1     0.0279
     78 H         8.803988   4.859927   -5.408599 H        1 UNL1     0.1553
     79 H         7.619325   3.346724   -4.925883 H        1 UNL1     0.1484
     80 H         3.917868   2.49238   -5.019706 H        1 UNL1     0.0317
     81 H         4.55714   4.01587   -5.619902 H        1 UNL1     0.0317
     82 H         6.551446   2.857142   -6.606714 H        1 UNL1     0.0428
     83 H         5.035169   2.224885   -7.209093 H        1 UNL1     0.0428
     84 H         6.954368   -0.023784   -4.149142 H        1 UNL1     0.0428
     85 H         7.775395   1.39979   -4.686241 H        1 UNL1     0.0428
     86 H         6.462064   1.581373   -2.572704 H        1 UNL1     0.0317
     87 H         4.990883   1.187694   -3.336244 H        1 UNL1     0.0317
     88 H         7.26482   0.636792   -7.417613 H        1 UNL1     0.0429
     89 H         7.022064   -0.781943   -6.395606 H        1 UNL1     0.0429
     90 H         5.355792   0.326654   -8.640019 H        1 UNL1     0.0308
     91 H         5.860357   -2.457057   -7.459755 H        1 UNL1     0.0233
     92 H         4.68376   -2.157311   -8.764082 H        1 UNL1     0.0233
     93 H         6.387768   -1.853564   -9.026183 H        1 UNL1     0.0233
     94 H         3.254071   -0.685797   -7.659637 H        1 UNL1     0.0233
     95 H         4.072341   -0.641225   -6.090313 H        1 UNL1     0.0233
     96 H         3.76927   0.870471   -6.977395 H        1 UNL1     0.0233
     97 H         3.426638   10.663126   -1.098629 H        1 UNL1     0.0280
     98 H         5.022833   11.338571   -1.280627 H        1 UNL1     0.0280
     99 H         3.952369   11.195126   -2.706551 H        1 UNL1     0.0280
     100 H         6.033854   10.802437   -3.889077 H        1 UNL1     0.2922
     101 H         6.442138   1.307879   1.846161 H        1 UNL1     0.0236
     102 H         4.716648   1.247684   2.380131 H        1 UNL1     0.0236
     103 H         5.614131   2.734277   2.388029 H        1 UNL1     0.0236
     104 H         3.556818   -0.533067   1.278251 H        1 UNL1     0.2098
     105 H         0.695042   1.181766   -1.063548 H        1 UNL1     0.0234
     106 H         1.318079   -0.487761   -0.938648 H        1 UNL1     0.0234
     107 H         0.0   -0.0   0.0 H        1 UNL1     0.0234
     108 H         2.181009   2.830805   2.003576 H        1 UNL1     0.2098
     109 H         -0.159674   3.785784   -2.266209 H        1 UNL1     0.0234
     110 H         0.905682   2.898895   -1.129877 H        1 UNL1     0.0234
     111 H         -0.278652   2.050669   -2.06085 H        1 UNL1     0.0234
     112 H         -4.602094   0.117208   0.455222 H        1 UNL1     0.0342
     113 H         -4.169316   -1.466167   1.192695 H        1 UNL1     0.0342
     114 H         -3.659211   0.043083   1.954226 H        1 UNL1     0.0342
     115 H         -1.702348   1.746177   3.983234 H        1 UNL1     0.0234
     116 H         -1.351107   3.330675   3.285536 H        1 UNL1     0.0234
     117 H         -2.82031   2.41509   2.889566 H        1 UNL1     0.0234
     118 H         0.390479   7.189812   -1.408517 H        1 UNL1     0.0309
     119 H         1.567938   7.944621   -2.527407 H        1 UNL1     0.0309
     120 H         1.367612   6.208542   -2.437659 H        1 UNL1     0.0309
     121 H         -2.045463   5.377536   3.356123 H        1 UNL1     0.0524
     122 H         -2.544396   5.992572   1.775094 H        1 UNL1     0.0524
     123 H         -3.093999   4.38405   2.308324 H        1 UNL1     0.0524
@<TRIPOS>BOND
     1     1     2    1
     2     1    42    1
     3     2     3    2
     4     3     4    1
     5     4     5    2
     6     5     7    1
     7     6    75    1
     8     6    76    1
     9     6    77    1
    10     7     9   am
    11     9    10    1
    12    10    11    2
    13    10    43    1
    14    11    14    1
    15    11    15    1
    16    12    13   ar
    17    12    27   ar
    18    12    43    1
    19    13    14    1
    20    13    30   ar
    21    14    17    2
    22    15    16    1
    23    16    17    1
    24    16    18    1
    25    16    22    1
    26    18    19    1
    27    19    20    1
    28    20    21    1
    29    21    22    1
    30    23    24    1
    31    23    88    1
    32    23    89    1
    33    24    25    1
    34    24    26    1
    35    24    90    1
    36    25    91    1
    37    25    92    1
    38    25    93    1
    39    26    94    1
    40    26    95    1
    41    26    96    1
    42    27    28   ar
    43    28    29   ar
    44    29    30   ar
    45    29    31    1
    46    30    33    1
    47    31    32    1
    48    32    33    1
    49    32    35    1
    50    34    97    1
    51    34    98    1
    52    34    99    1
    53    35    61    1
    54    36    37    1
    55    36    60    1
    56    37    38    1
    57    38    39    1
    58    39    40    1
    59    40    41    1
    60    41    42    1
    61    45   100    1
    62    47   101    1
    63    47   102    1
    64    47   103    1
    65    48   104    1
    66    49   105    1
    67    49   106    1
    68    49   107    1
    69    50   108    1
    70    51    59    1
    71    52   109    1
    72    52   110    1
    73    52   111    1
    74    53    54    1
    75    54    55    2
    76    54    56    1
    77    56   112    1
    78    56   113    1
    79    56   114    1
    80    57   115    1
    81    57   116    1
    82    57   117    1
    83    58   118    1
    84    58   119    1
    85    58   120    1
    86    59   121    1
    87    59   122    1
    88    59   123    1
    89    60    61    2
    90     1    47    1
    91     1    62    1
    92     2    63    1
    93     3    64    1
    94     4    65    1
    95     5     6    1
    96     7     8    2
    97     9    78    1
    98    15    79    1
    99    18    80    1
   100    18    81    1
   101    19    82    1
   102    19    83    1
   103    20    23    1
   104    21    84    1
   105    21    85    1
   106    22    86    1
   107    22    87    1
   108    27    45    1
   109    28    34    1
   110    32    58    1
   111    33    46    2
   112    36    51    1
   113    36    66    1
   114    37    52    1
   115    37    67    1
   116    38    53    1
   117    38    68    1
   118    42    48    1
   119    42    72    1
   120    43    44    2
   121    60    73    1
   122    61    74    1
   123    39    69    1
   124    39    57    1
   125    40    70    1
   126    40    50    1
   127    41    71    1
   128    41    49    1
