@<TRIPOS>MOLECULE
*****
 123 128 0 0 0
SMALL
GASTEIGER

@<TRIPOS>ATOM
     1 C         -5.188513   -0.584476   -0.425154 C.3        1 UNL1     0.0009
     2 C         -6.534587   -0.422826   -1.689666 C.2        1 UNL1     -0.0787
     3 C         -7.732001   0.231997   -2.172836 C.2        1 UNL1     -0.0649
     4 C         -8.540409   -0.026521   -3.63776 C.2        1 UNL1     -0.0542
     5 C         -9.453813   0.520933   -4.572139 C.2        1 UNL1     0.0115
     6 C         -10.467107   1.673906   -4.811332 C.3        1 UNL1     -0.0348
     7 C         -9.506094   -0.088859   -6.056191 C.2        1 UNL1     0.2441
     8 O         -10.381059   -0.858252   -6.429013 O.2        1 UNL1     -0.2702
     9 N         -8.63319   0.520361   -6.974364 N.am        1 UNL1     -0.2772
     10 C         -7.400491   -0.090194   -6.942758 C.2        1 UNL1     0.1049
     11 C         -6.57616   0.311604   -5.992359 C.2        1 UNL1     0.0801
     12 C         -6.295966   -2.333719   -7.005646 C.ar        1 UNL1     0.0753
     13 C         -5.572533   -1.92315   -5.840877 C.ar        1 UNL1     0.0305
     14 C         -5.594049   -0.538247   -5.37544 C.2        1 UNL1     0.0924
     15 N         -6.657372   1.371276   -5.169542 N.pl3        1 UNL1     -0.3170
     16 C         -5.420574   1.456324   -4.439233 C.3        1 UNL1     0.1275
     17 N         -4.914369   0.03551   -4.38662 N.2        1 UNL1     -0.2557
     18 C         -4.432754   2.22581   -5.310901 C.3        1 UNL1     0.0016
     19 C         -5.044684   3.571004   -5.668092 C.3        1 UNL1     0.0026
     20 N         -5.332635   4.295363   -4.437882 N.3        1 UNL1     -0.3018
     21 C         -6.227075   3.606223   -3.505448 C.3        1 UNL1     0.0026
     22 C         -5.590691   2.259675   -3.156566 C.3        1 UNL1     0.0016
     23 C         -5.635981   5.694308   -4.664986 C.3        1 UNL1     0.0012
     24 C         -6.736168   5.84122   -5.727889 C.3        1 UNL1     -0.0339
     25 C         -7.469745   7.186015   -5.595799 C.3        1 UNL1     -0.0615
     26 C         -6.146847   5.659905   -7.115911 C.3        1 UNL1     -0.0615
     27 C         -6.174792   -3.625441   -7.512487 C.ar        1 UNL1     0.1347
     28 C         -5.334008   -4.578549   -6.965936 C.ar        1 UNL1     0.0342
     29 C         -4.669038   -4.167227   -5.791289 C.ar        1 UNL1     0.1435
     30 C         -4.80848   -2.888096   -5.251288 C.ar        1 UNL1     0.0774
     31 O         -3.732248   -4.94297   -5.203366 O.3        1 UNL1     -0.4436
     32 C         -2.978141   -4.040188   -4.380456 C.3        1 UNL1     0.3143
     33 C         -3.908296   -2.873266   -4.117174 C.2        1 UNL1     0.2504
     34 C         -4.962827   -5.892155   -7.595829 C.3        1 UNL1     -0.0327
     35 O         -2.759695   -4.691531   -3.122964 O.2        1 UNL1     -0.4528
     36 C         0.540059   -3.347395   -1.814144 C.3        1 UNL1     0.0854
     37 C         0.965502   -1.855624   -1.529295 C.3        1 UNL1     0.0236
     38 C         1.495617   -1.576293   -0.041781 C.3        1 UNL1     0.1131
     39 C         0.637935   -2.051437   1.199544 C.3        1 UNL1     0.0200
     40 C         -1.014678   -1.825908   1.220664 C.3        1 UNL1     0.0661
     41 C         -1.823816   -0.374007   0.88171 C.3        1 UNL1     0.0091
     42 C         -3.463489   -0.076491   0.114664 C.3        1 UNL1     0.0661
     43 C         -7.110825   -1.311763   -7.708406 C.2        1 UNL1     0.2131
     44 O         -7.443099   -1.402498   -8.876352 O.2        1 UNL1     -0.2851
     45 O         -6.948262   -3.957987   -8.62271 O.3        1 UNL1     -0.5056
     46 O         -3.918169   -2.115703   -3.172793 O.2        1 UNL1     -0.2836
     47 C         -5.73598   -1.257497   0.86221 C.3        1 UNL1     -0.0566
     48 O         -3.894104   0.901377   1.142993 O.3        1 UNL1     -0.3909
     49 C         -0.852173   0.586044   0.23232 C.3        1 UNL1     -0.0577
     50 O         -1.675895   -2.905602   0.592351 O.3        1 UNL1     -0.3910
     51 O         0.510814   -4.204089   -0.694925 O.3        1 UNL1     -0.3753
     52 C         0.059566   -0.836098   -2.294015 C.3        1 UNL1     -0.0564
     53 O         2.212924   -0.266126   0.104018 O.3        1 UNL1     -0.4608
     54 C         1.702887   0.857603   0.699858 C.2        1 UNL1     0.3042
     55 O         0.545556   1.271739   0.645867 O.2        1 UNL1     -0.2512
     56 C         2.701327   1.595888   1.545296 C.3        1 UNL1     0.0332
     57 C         1.201624   -3.476227   1.65824 C.3        1 UNL1     -0.0567
     58 C         -1.792683   -3.548419   -5.243232 C.3        1 UNL1     0.0210
     59 C         0.597696   -3.544414   0.567274 C.3        1 UNL1     0.0372
     60 C         -0.765359   -3.506883   -2.511 C.2        1 UNL1     -0.0208
     61 C         -1.777233   -4.3418   -2.270647 C.2        1 UNL1     0.0882
     62 H         -4.742319   -1.382937   -1.030202 H        1 UNL1     0.0365
     63 H         -6.299931   -1.263864   -2.345457 H        1 UNL1     0.0576
     64 H         -8.145364   1.110707   -1.67273 H        1 UNL1     0.0615
     65 H         -8.111006   -0.960157   -4.011148 H        1 UNL1     0.0622
     66 H         1.301839   -3.723296   -2.511595 H        1 UNL1     0.0645
     67 H         1.888615   -1.722688   -2.119846 H        1 UNL1     0.0362
     68 H         2.389709   -2.218261   -0.041556 H        1 UNL1     0.0741
     69 H         0.962799   -1.506744   2.076004 H        1 UNL1     0.0359
     70 H         -1.213069   -1.970385   2.299935 H        1 UNL1     0.0600
     71 H         -1.897395   0.049176   1.902719 H        1 UNL1     0.0348
     72 H         -3.476363   -1.119507   0.462898 H        1 UNL1     0.0602
     73 H         -0.769817   -2.905774   -3.386154 H        1 UNL1     0.0628
     74 H         -1.875975   -4.947697   -1.369328 H        1 UNL1     0.1022
     75 H         -10.90528   2.017801   -3.84346 H        1 UNL1     0.0279
     76 H         -10.064663   2.595078   -5.226723 H        1 UNL1     0.0279
     77 H         -11.366646   1.344258   -5.351576 H        1 UNL1     0.0279
     78 H         -8.497892   1.496981   -6.721413 H        1 UNL1     0.1553
     79 H         -7.241883   2.168124   -5.34365 H        1 UNL1     0.1484
     80 H         -3.490972   2.347239   -4.762205 H        1 UNL1     0.0317
     81 H         -4.195055   1.665185   -6.221313 H        1 UNL1     0.0317
     82 H         -5.950709   3.456219   -6.281163 H        1 UNL1     0.0428
     83 H         -4.324652   4.102395   -6.291171 H        1 UNL1     0.0428
     84 H         -6.363337   4.13464   -2.556755 H        1 UNL1     0.0428
     85 H         -7.245229   3.514148   -3.90819 H        1 UNL1     0.0428
     86 H         -6.201174   1.844404   -2.376278 H        1 UNL1     0.0317
     87 H         -4.62336   2.418651   -2.664537 H        1 UNL1     0.0317
     88 H         -6.001514   6.121935   -3.722215 H        1 UNL1     0.0429
     89 H         -4.736345   6.256914   -4.945884 H        1 UNL1     0.0429
     90 H         -7.465545   5.03196   -5.60411 H        1 UNL1     0.0308
     91 H         -8.554806   7.046906   -5.575939 H        1 UNL1     0.0233
     92 H         -7.158462   7.708323   -4.688107 H        1 UNL1     0.0233
     93 H         -7.251215   7.86457   -6.429252 H        1 UNL1     0.0233
     94 H         -5.113216   5.304572   -7.043929 H        1 UNL1     0.0233
     95 H         -6.721897   4.913806   -7.671443 H        1 UNL1     0.0233
     96 H         -6.151296   6.598553   -7.67706 H        1 UNL1     0.0233
     97 H         -4.808055   -6.670284   -6.85435 H        1 UNL1     0.0280
     98 H         -5.748286   -6.266766   -8.265139 H        1 UNL1     0.0280
     99 H         -4.031052   -5.774493   -8.17293 H        1 UNL1     0.0280
     100 H         -7.571122   -3.300042   -8.87722 H        1 UNL1     0.2922
     101 H         -6.775996   -1.546495   0.712205 H        1 UNL1     0.0236
     102 H         -5.60611   -0.6456   1.75423 H        1 UNL1     0.0236
     103 H         -5.213344   -2.201412   1.090393 H        1 UNL1     0.0236
     104 H         -3.866446   1.789224   0.735644 H        1 UNL1     0.2098
     105 H         -1.211314   1.031949   -0.6918 H        1 UNL1     0.0234
     106 H         -0.460843   1.356586   0.896438 H        1 UNL1     0.0234
     107 H         0.0   0.0   0.0 H        1 UNL1     0.0234
     108 H         -2.413913   -2.531492   0.073563 H        1 UNL1     0.2098
     109 H         -0.88814   -1.285888   -2.621512 H        1 UNL1     0.0234
     110 H         -0.145847   0.073028   -1.718655 H        1 UNL1     0.0234
     111 H         0.545631   -0.468773   -3.207666 H        1 UNL1     0.0234
     112 H         3.00778   2.516984   1.040305 H        1 UNL1     0.0342
     113 H         2.317661   1.806114   2.542516 H        1 UNL1     0.0342
     114 H         3.59127   0.961477   1.657939 H        1 UNL1     0.0342
     115 H         2.273151   -3.433754   1.897433 H        1 UNL1     0.0234
     116 H         0.688362   -3.898835   2.524273 H        1 UNL1     0.0234
     117 H         1.192515   -4.232425   0.854485 H        1 UNL1     0.0234
     118 H         -1.287458   -4.379451   -5.765859 H        1 UNL1     0.0309
     119 H         -2.080764   -2.787329   -5.97532 H        1 UNL1     0.0309
     120 H         -0.991713   -3.103641   -4.642627 H        1 UNL1     0.0309
     121 H         1.654035   -3.3959   0.78964 H        1 UNL1     0.0524
     122 H         0.118394   -2.55137   0.554201 H        1 UNL1     0.0524
     123 H         0.133387   -4.149866   1.34054 H        1 UNL1     0.0524
@<TRIPOS>BOND
     1     1     2    1
     2     1    42    1
     3     2     3    2
     4     3     4    1
     5     4     5    2
     6     5     7    1
     7     6    75    1
     8     6    76    1
     9     6    77    1
    10     7     9   am
    11     9    10    1
    12    10    11    2
    13    10    43    1
    14    11    14    1
    15    11    15    1
    16    12    13   ar
    17    12    27   ar
    18    12    43    1
    19    13    14    1
    20    13    30   ar
    21    14    17    2
    22    15    16    1
    23    16    17    1
    24    16    18    1
    25    16    22    1
    26    18    19    1
    27    19    20    1
    28    20    21    1
    29    21    22    1
    30    23    24    1
    31    23    88    1
    32    23    89    1
    33    24    25    1
    34    24    26    1
    35    24    90    1
    36    25    91    1
    37    25    92    1
    38    25    93    1
    39    26    94    1
    40    26    95    1
    41    26    96    1
    42    27    28   ar
    43    28    29   ar
    44    29    30   ar
    45    29    31    1
    46    30    33    1
    47    31    32    1
    48    32    33    1
    49    32    35    1
    50    34    97    1
    51    34    98    1
    52    34    99    1
    53    35    61    1
    54    36    37    1
    55    36    60    1
    56    37    38    1
    57    38    39    1
    58    39    40    1
    59    40    41    1
    60    41    42    1
    61    45   100    1
    62    47   101    1
    63    47   102    1
    64    47   103    1
    65    48   104    1
    66    49   105    1
    67    49   106    1
    68    49   107    1
    69    50   108    1
    70    51    59    1
    71    52   109    1
    72    52   110    1
    73    52   111    1
    74    53    54    1
    75    54    55    2
    76    54    56    1
    77    56   112    1
    78    56   113    1
    79    56   114    1
    80    57   115    1
    81    57   116    1
    82    57   117    1
    83    58   118    1
    84    58   119    1
    85    58   120    1
    86    59   121    1
    87    59   122    1
    88    59   123    1
    89    60    61    2
    90     1    47    1
    91     1    62    1
    92     2    63    1
    93     3    64    1
    94     4    65    1
    95     5     6    1
    96     7     8    2
    97     9    78    1
    98    15    79    1
    99    18    80    1
   100    18    81    1
   101    19    82    1
   102    19    83    1
   103    20    23    1
   104    21    84    1
   105    21    85    1
   106    22    86    1
   107    22    87    1
   108    27    45    1
   109    28    34    1
   110    32    58    1
   111    33    46    2
   112    36    51    1
   113    36    66    1
   114    37    52    1
   115    37    67    1
   116    38    53    1
   117    38    68    1
   118    42    48    1
   119    42    72    1
   120    43    44    2
   121    60    73    1
   122    61    74    1
   123    39    69    1
   124    39    57    1
   125    40    70    1
   126    40    50    1
   127    41    71    1
   128    41    49    1
