@<TRIPOS>MOLECULE
*****
 123 128 0 0 0
SMALL
GASTEIGER

@<TRIPOS>ATOM
     1 C         3.786613   -2.229721   -2.339932 C.3        1 UNL1     0.0009
     2 C         4.119195   -2.818338   -4.066187 C.2        1 UNL1     -0.0787
     3 C         4.379939   -3.895648   -4.997563 C.2        1 UNL1     -0.0649
     4 C         4.498052   -3.807344   -6.68416 C.2        1 UNL1     -0.0542
     5 C         4.437294   -4.544475   -7.892475 C.2        1 UNL1     0.0115
     6 C         4.378355   -5.977919   -8.488367 C.3        1 UNL1     -0.0348
     7 C         4.221706   -3.755504   -9.273791 C.2        1 UNL1     0.2441
     8 O         5.131562   -3.528237   -10.059309 O.2        1 UNL1     -0.2702
     9 N         2.877984   -3.57252   -9.644033 N.am        1 UNL1     -0.2772
     10 C         2.381751   -2.413274   -9.093374 C.2        1 UNL1     0.1049
     11 C         1.958235   -2.496607   -7.845211 C.2        1 UNL1     0.0801
     12 C         2.888669   0.018616   -8.799642 C.ar        1 UNL1     0.0753
     13 C         2.618637   -0.173592   -7.407253 C.ar        1 UNL1     0.0305
     14 C         2.017046   -1.407962   -6.907784 C.2        1 UNL1     0.0924
     15 N         1.734475   -3.578227   -7.07934 N.pl3        1 UNL1     -0.3170
     16 C         1.11601   -3.132304   -5.859132 C.3        1 UNL1     0.1275
     17 N         1.610539   -1.717724   -5.679889 N.2        1 UNL1     -0.2557
     18 C         -0.382736   -3.026567   -6.124237 C.3        1 UNL1     0.0016
     19 C         -0.883718   -4.371096   -6.627078 C.3        1 UNL1     0.0026
     20 N         -0.600097   -5.382865   -5.618657 N.3        1 UNL1     -0.3018
     21 C         0.811166   -5.516004   -5.251261 C.3        1 UNL1     0.0026
     22 C         1.292374   -4.155237   -4.744658 C.3        1 UNL1     0.0016
     23 C         -1.295697   -6.631095   -5.860949 C.3        1 UNL1     0.0012
     24 C         -0.474603   -7.532494   -6.796386 C.3        1 UNL1     -0.0339
     25 C         0.189451   -8.685684   -6.026163 C.3        1 UNL1     -0.0615
     26 C         -1.350481   -8.045996   -7.925958 C.3        1 UNL1     -0.0615
     27 C         3.34905   1.240912   -9.283544 C.ar        1 UNL1     0.1347
     28 C         3.538415   2.351466   -8.480512 C.ar        1 UNL1     0.0342
     29 C         3.313018   2.124626   -7.106138 C.ar        1 UNL1     0.1435
     30 C         2.886377   0.895331   -6.602123 C.ar        1 UNL1     0.0774
     31 O         3.34856   3.134906   -6.209992 O.3        1 UNL1     -0.4436
     32 C         2.630082   2.635571   -5.071867 C.3        1 UNL1     0.3143
     33 C         2.710437   1.126503   -5.183543 C.2        1 UNL1     0.2504
     34 C         3.78571   3.754597   -8.960271 C.3        1 UNL1     -0.0327
     35 O         3.371427   3.007496   -3.903393 O.2        1 UNL1     -0.4528
     36 C         0.808175   3.432391   -1.136211 C.3        1 UNL1     0.0854
     37 C         -0.243333   2.394539   -0.584201 C.3        1 UNL1     0.0236
     38 C         -0.169027   2.13277   0.996211 C.3        1 UNL1     0.1131
     39 C         1.218192   1.779031   1.669086 C.3        1 UNL1     0.0200
     40 C         2.255146   0.691079   0.945536 C.3        1 UNL1     0.0661
     41 C         1.837828   -0.8513   0.375868 C.3        1 UNL1     0.0091
     42 C         2.500971   -1.818484   -1.034877 C.3        1 UNL1     0.0661
     43 C         2.577007   -1.099453   -9.724329 C.2        1 UNL1     0.2131
     44 O         2.38479   -0.952251   -10.917695 O.2        1 UNL1     -0.2851
     45 O         3.631052   1.330784   -10.6451 O.3        1 UNL1     -0.5056
     46 O         2.662501   0.301798   -4.298434 O.2        1 UNL1     -0.2836
     47 C         5.09033   -2.264238   -1.497843 C.3        1 UNL1     -0.0566
     48 O         2.654262   -3.069176   -0.252964 O.3        1 UNL1     -0.3909
     49 C         0.330375   -0.957147   0.313594 C.3        1 UNL1     -0.0577
     50 O         3.091252   1.341791   0.010002 O.3        1 UNL1     -0.3910
     51 O         1.786424   3.865713   -0.218229 O.3        1 UNL1     -0.3753
     52 C         -0.515036   1.242314   -1.605722 C.3        1 UNL1     -0.0564
     53 O         -1.376441   1.431353   1.546202 O.3        1 UNL1     -0.4608
     54 C         -1.421063   0.728829   2.721957 C.2        1 UNL1     0.3042
     55 O         -1.257261   1.166455   3.860153 O.2        1 UNL1     -0.2512
     56 C         -1.76711   -0.721998   2.542885 C.3        1 UNL1     0.0332
     57 C         1.840995   3.139549   2.234136 C.3        1 UNL1     -0.0567
     58 C         1.158167   3.071904   -5.257897 C.3        1 UNL1     0.0210
     59 C         2.420002   5.098996   -0.555063 C.3        1 UNL1     0.0372
     60 C         1.531889   3.002025   -2.363478 C.2        1 UNL1     -0.0208
     61 C         2.827124   3.073905   -2.673225 C.2        1 UNL1     0.0882
     62 H         3.69115   -1.208134   -2.727175 H        1 UNL1     0.0365
     63 H         4.176224   -1.866513   -4.598396 H        1 UNL1     0.0576
     64 H         4.362608   -4.941402   -4.682597 H        1 UNL1     0.0615
     65 H         4.588038   -2.736036   -6.883369 H        1 UNL1     0.0622
     66 H         0.207078   4.304094   -1.430937 H        1 UNL1     0.0645
     67 H         -1.210487   2.918949   -0.674572 H        1 UNL1     0.0362
     68 H         -0.422172   3.139729   1.36155 H        1 UNL1     0.0741
     69 H         1.031617   1.323918   2.632658 H        1 UNL1     0.0359
     70 H         2.920571   0.464384   1.800451 H        1 UNL1     0.0600
     71 H         2.060899   -1.456771   1.276202 H        1 UNL1     0.0348
     72 H         3.260614   -1.05717   -0.805396 H        1 UNL1     0.0602
     73 H         0.826227   2.703969   -3.098633 H        1 UNL1     0.0628
     74 H         3.618716   3.313876   -1.962568 H        1 UNL1     0.1022
     75 H         4.528031   -6.741782   -7.687651 H        1 UNL1     0.0279
     76 H         3.431088   -6.281955   -8.928045 H        1 UNL1     0.0279
     77 H         5.224298   -6.195764   -9.156667 H        1 UNL1     0.0279
     78 H         2.317325   -4.344545   -9.289468 H        1 UNL1     0.1553
     79 H         1.608871   -4.503877   -7.445849 H        1 UNL1     0.1484
     80 H         -0.889746   -2.731266   -5.197681 H        1 UNL1     0.0317
     81 H         -0.595574   -2.244515   -6.86095 H        1 UNL1     0.0317
     82 H         -0.432038   -4.638237   -7.59379 H        1 UNL1     0.0428
     83 H         -1.953944   -4.272829   -6.811496 H        1 UNL1     0.0428
     84 H         0.987269   -6.225048   -4.436364 H        1 UNL1     0.0428
     85 H         1.414431   -5.908544   -6.081503 H        1 UNL1     0.0428
     86 H         2.28241   -4.322098   -4.362593 H        1 UNL1     0.0317
     87 H         0.722341   -3.864039   -3.853949 H        1 UNL1     0.0317
     88 H         -1.418903   -7.145716   -4.899034 H        1 UNL1     0.0429
     89 H         -2.301853   -6.45539   -6.262883 H        1 UNL1     0.0429
     90 H         0.310187   -6.934147   -7.274193 H        1 UNL1     0.0308
     91 H         0.418147   -9.526352   -6.688036 H        1 UNL1     0.0233
     92 H         1.109801   -8.348462   -5.543623 H        1 UNL1     0.0233
     93 H         -0.4503   -9.0761   -5.225457 H        1 UNL1     0.0233
     94 H         -1.279285   -9.136989   -7.99305 H        1 UNL1     0.0233
     95 H         -2.395839   -7.787472   -7.73529 H        1 UNL1     0.0233
     96 H         -1.051396   -7.620367   -8.887912 H        1 UNL1     0.0233
     97 H         4.772378   3.867019   -9.399678 H        1 UNL1     0.0280
     98 H         3.073614   4.057188   -9.739125 H        1 UNL1     0.0280
     99 H         3.703164   4.454392   -8.112587 H        1 UNL1     0.0280
     100 H         2.896913   1.572789   -11.181846 H        1 UNL1     0.2922
     101 H         5.287999   -3.283895   -1.167869 H        1 UNL1     0.0236
     102 H         5.082653   -1.55969   -0.666858 H        1 UNL1     0.0236
     103 H         5.975705   -1.986326   -2.093721 H        1 UNL1     0.0236
     104 H         3.545389   -3.059014   0.147984 H        1 UNL1     0.2098
     105 H         -0.039385   -1.687579   -0.401638 H        1 UNL1     0.0234
     106 H         -0.156802   -1.093584   1.27898 H        1 UNL1     0.0234
     107 H         -0.0   0.0   0.0 H        1 UNL1     0.0234
     108 H         2.525609   1.934425   -0.521599 H        1 UNL1     0.2098
     109 H         0.397027   0.680696   -1.851563 H        1 UNL1     0.0234
     110 H         -1.294639   0.548065   -1.274089 H        1 UNL1     0.0234
     111 H         -0.892412   1.629484   -2.561563 H        1 UNL1     0.0234
     112 H         -0.884674   -1.276704   2.209788 H        1 UNL1     0.0342
     113 H         -2.183846   -1.15853   3.449314 H        1 UNL1     0.0342
     114 H         -2.529763   -0.798181   1.755661 H        1 UNL1     0.0342
     115 H         2.869265   3.296012   1.880061 H        1 UNL1     0.0234
     116 H         1.265964   4.031388   1.977205 H        1 UNL1     0.0234
     117 H         1.99063   3.134105   3.327535 H        1 UNL1     0.0234
     118 H         0.449745   2.3008   -4.907837 H        1 UNL1     0.0309
     119 H         0.926046   4.021531   -4.765421 H        1 UNL1     0.0309
     120 H         0.888531   3.202903   -6.311577 H        1 UNL1     0.0309
     121 H         3.000784   4.934302   -1.462215 H        1 UNL1     0.0524
     122 H         1.691597   5.899096   -0.76791 H        1 UNL1     0.0524
     123 H         3.070587   5.420397   0.253351 H        1 UNL1     0.0524
@<TRIPOS>BOND
     1     1     2    1
     2     1    42    1
     3     2     3    2
     4     3     4    1
     5     4     5    2
     6     5     7    1
     7     6    75    1
     8     6    76    1
     9     6    77    1
    10     7     9   am
    11     9    10    1
    12    10    11    2
    13    10    43    1
    14    11    14    1
    15    11    15    1
    16    12    13   ar
    17    12    27   ar
    18    12    43    1
    19    13    14    1
    20    13    30   ar
    21    14    17    2
    22    15    16    1
    23    16    17    1
    24    16    18    1
    25    16    22    1
    26    18    19    1
    27    19    20    1
    28    20    21    1
    29    21    22    1
    30    23    24    1
    31    23    88    1
    32    23    89    1
    33    24    25    1
    34    24    26    1
    35    24    90    1
    36    25    91    1
    37    25    92    1
    38    25    93    1
    39    26    94    1
    40    26    95    1
    41    26    96    1
    42    27    28   ar
    43    28    29   ar
    44    29    30   ar
    45    29    31    1
    46    30    33    1
    47    31    32    1
    48    32    33    1
    49    32    35    1
    50    34    97    1
    51    34    98    1
    52    34    99    1
    53    35    61    1
    54    36    37    1
    55    36    60    1
    56    37    38    1
    57    38    39    1
    58    39    40    1
    59    40    41    1
    60    41    42    1
    61    45   100    1
    62    47   101    1
    63    47   102    1
    64    47   103    1
    65    48   104    1
    66    49   105    1
    67    49   106    1
    68    49   107    1
    69    50   108    1
    70    51    59    1
    71    52   109    1
    72    52   110    1
    73    52   111    1
    74    53    54    1
    75    54    55    2
    76    54    56    1
    77    56   112    1
    78    56   113    1
    79    56   114    1
    80    57   115    1
    81    57   116    1
    82    57   117    1
    83    58   118    1
    84    58   119    1
    85    58   120    1
    86    59   121    1
    87    59   122    1
    88    59   123    1
    89    60    61    2
    90     1    47    1
    91     1    62    1
    92     2    63    1
    93     3    64    1
    94     4    65    1
    95     5     6    1
    96     7     8    2
    97     9    78    1
    98    15    79    1
    99    18    80    1
   100    18    81    1
   101    19    82    1
   102    19    83    1
   103    20    23    1
   104    21    84    1
   105    21    85    1
   106    22    86    1
   107    22    87    1
   108    27    45    1
   109    28    34    1
   110    32    58    1
   111    33    46    2
   112    36    51    1
   113    36    66    1
   114    37    52    1
   115    37    67    1
   116    38    53    1
   117    38    68    1
   118    42    48    1
   119    42    72    1
   120    43    44    2
   121    60    73    1
   122    61    74    1
   123    39    69    1
   124    39    57    1
   125    40    70    1
   126    40    50    1
   127    41    71    1
   128    41    49    1
