@<TRIPOS>MOLECULE
*****
 123 128 0 0 0
SMALL
GASTEIGER

@<TRIPOS>ATOM
     1 C         3.81969   2.969591   2.559956 C.3        1 UNL1     0.0009
     2 C         5.618303   3.095596   2.991405 C.2        1 UNL1     -0.0787
     3 C         6.689284   2.977619   3.958426 C.2        1 UNL1     -0.0649
     4 C         8.353766   3.135636   3.692183 C.2        1 UNL1     -0.0542
     5 C         9.643684   2.836109   4.195645 C.2        1 UNL1     0.0115
     6 C         10.416164   2.291857   5.428685 C.3        1 UNL1     -0.0348
     7 C         10.903357   2.91981   3.204078 C.2        1 UNL1     0.2441
     8 O         11.686122   3.859912   3.200564 O.2        1 UNL1     -0.2702
     9 N         11.19734   1.725592   2.523219 N.am        1 UNL1     -0.2772
     10 C         10.484478   1.654621   1.348438 C.2        1 UNL1     0.1049
     11 C         9.242623   1.216045   1.446777 C.2        1 UNL1     0.0801
     12 C         9.8997   2.966949   -0.699284 C.ar        1 UNL1     0.0753
     13 C         8.534543   2.633403   -0.427805 C.ar        1 UNL1     0.0305
     14 C         8.175948   1.63777   0.579754 C.2        1 UNL1     0.0924
     15 N         8.614297   0.625092   2.477558 N.pl3        1 UNL1     -0.3170
     16 C         7.325002   0.186541   2.013182 C.3        1 UNL1     0.1275
     17 N         6.983886   1.137193   0.891744 N.2        1 UNL1     -0.2557
     18 C         7.519007   -1.180871   1.364915 C.3        1 UNL1     0.0016
     19 C         8.171586   -2.110194   2.375899 C.3        1 UNL1     0.0026
     20 N         7.312583   -2.20327   3.54828 N.3        1 UNL1     -0.3018
     21 C         7.017504   -0.928432   4.205611 C.3        1 UNL1     0.0026
     22 C         6.358384   -0.012097   3.173243 C.3        1 UNL1     0.0016
     23 C         7.687421   -3.284573   4.43762 C.3        1 UNL1     0.0012
     24 C         9.170041   -3.644435   4.252974 C.3        1 UNL1     -0.0339
     25 C         9.828578   -2.776276   3.168223 C.3        1 UNL1     -0.0615
     26 C         9.902084   -3.532842   5.579036 C.3        1 UNL1     -0.0615
     27 C         10.239224   3.825737   -1.742033 C.ar        1 UNL1     0.1347
     28 C         9.307729   4.378877   -2.6025 C.ar        1 UNL1     0.0342
     29 C         7.966515   4.075443   -2.285898 C.ar        1 UNL1     0.1435
     30 C         7.6092   3.245703   -1.222376 C.ar        1 UNL1     0.0774
     31 O         6.949959   4.448687   -3.093554 O.3        1 UNL1     -0.4436
     32 C         5.859731   3.590779   -2.724404 C.3        1 UNL1     0.3143
     33 C         6.167173   3.146354   -1.308714 C.2        1 UNL1     0.2504
     34 C         9.612081   5.100075   -3.885989 C.3        1 UNL1     -0.0327
     35 O         4.681241   4.403341   -2.659941 O.2        1 UNL1     -0.4528
     36 C         1.789986   2.117092   -3.566471 C.3        1 UNL1     0.0854
     37 C         1.337528   0.766543   -2.889108 C.3        1 UNL1     0.0236
     38 C         -0.192363   0.730276   -2.409668 C.3        1 UNL1     0.1131
     39 C         -0.762736   1.903375   -1.514803 C.3        1 UNL1     0.0200
     40 C         0.132207   2.508121   -0.243663 C.3        1 UNL1     0.0661
     41 C         0.879502   1.589675   0.971087 C.3        1 UNL1     0.0091
     42 C         2.426215   1.892098   1.910034 C.3        1 UNL1     0.0661
     43 C         10.948226   2.297646   0.109967 C.2        1 UNL1     0.2131
     44 O         12.104917   2.179879   -0.251883 O.2        1 UNL1     -0.2851
     45 O         11.587408   4.134885   -1.910152 O.3        1 UNL1     -0.5056
     46 O         5.394152   2.807916   -0.440524 O.2        1 UNL1     -0.2836
     47 C         3.037551   4.172849   3.151911 C.3        1 UNL1     -0.0566
     48 O         1.817579   1.596473   3.229611 O.3        1 UNL1     -0.3909
     49 C         0.899348   0.139046   0.543562 C.3        1 UNL1     -0.0577
     50 O         1.006546   3.526672   -0.686165 O.3        1 UNL1     -0.3910
     51 O         0.860574   3.175656   -3.511112 O.3        1 UNL1     -0.3753
     52 C         2.487876   0.123909   -2.047282 C.3        1 UNL1     -0.0564
     53 O         -0.691766   -0.650427   -2.098892 O.3        1 UNL1     -0.4608
     54 C         -2.005654   -1.001577   -1.9306 C.2        1 UNL1     0.3042
     55 O         -2.988407   -0.262957   -1.980352 O.2        1 UNL1     -0.2512
     56 C         -2.212233   -2.474524   -1.719728 C.3        1 UNL1     0.0332
     57 C         -1.474538   2.951929   -2.490533 C.3        1 UNL1     -0.0567
     58 C         5.933899   2.36189   -3.660278 C.3        1 UNL1     0.0210
     59 C         1.174318   4.292792   -4.341436 C.3        1 UNL1     0.0372
     60 C         3.088152   2.659857   -3.081358 C.2        1 UNL1     -0.0208
     61 C         3.433546   3.90328   -2.744691 C.2        1 UNL1     0.0882
     62 H         4.068747   3.236491   1.525816 H        1 UNL1     0.0365
     63 H         6.025597   3.482959   2.055172 H        1 UNL1     0.0576
     64 H         6.51081   2.597236   4.966673 H        1 UNL1     0.0615
     65 H         8.416911   3.591879   2.700549 H        1 UNL1     0.0622
     66 H         1.948001   1.856812   -4.622563 H        1 UNL1     0.0645
     67 H         1.324154   0.040818   -3.720795 H        1 UNL1     0.0362
     68 H         -0.693066   0.8367   -3.384088 H        1 UNL1     0.0741
     69 H         -1.666085   1.561637   -1.027376 H        1 UNL1     0.0359
     70 H         -0.661447   3.045889   0.30949 H        1 UNL1     0.0600
     71 H         0.073208   1.5811   1.730542 H        1 UNL1     0.0348
     72 H         2.128966   2.865543   1.493664 H        1 UNL1     0.0602
     73 H         3.829032   1.901994   -3.144513 H        1 UNL1     0.0628
     74 H         2.727565   4.721977   -2.601291 H        1 UNL1     0.1022
     75 H         9.739275   2.217284   6.313725 H        1 UNL1     0.0279
     76 H         10.808333   1.280554   5.347831 H        1 UNL1     0.0279
     77 H         11.178163   2.994226   5.797109 H        1 UNL1     0.0279
     78 H         10.924477   0.929411   3.095687 H        1 UNL1     0.1553
     79 H         9.091781   0.191302   3.246172 H        1 UNL1     0.1484
     80 H         6.544178   -1.563913   1.039721 H        1 UNL1     0.0317
     81 H         8.140846   -1.103354   0.466606 H        1 UNL1     0.0317
     82 H         9.180561   -1.768958   2.650563 H        1 UNL1     0.0428
     83 H         8.302354   -3.078826   1.892472 H        1 UNL1     0.0428
     84 H         6.307455   -1.015993   5.033847 H        1 UNL1     0.0428
     85 H         7.912914   -0.489576   4.667092 H        1 UNL1     0.0428
     86 H         6.0376   0.855645   3.719237 H        1 UNL1     0.0317
     87 H         5.417287   -0.455348   2.825446 H        1 UNL1     0.0317
     88 H         7.536208   -2.94512   5.470674 H        1 UNL1     0.0429
     89 H         7.045503   -4.162665   4.290407 H        1 UNL1     0.0429
     90 H         9.249826   -4.696434   3.954401 H        1 UNL1     0.0308
     91 H         10.804601   -2.404677   3.494408 H        1 UNL1     0.0233
     92 H         9.951686   -3.342662   2.242124 H        1 UNL1     0.0233
     93 H         9.223471   -1.898316   2.911579 H        1 UNL1     0.0233
     94 H         9.908281   -2.492118   5.920634 H        1 UNL1     0.0233
     95 H         9.393698   -4.133814   6.338205 H        1 UNL1     0.0233
     96 H         10.937378   -3.874583   5.493314 H        1 UNL1     0.0233
     97 H         10.466301   4.671424   -4.401543 H        1 UNL1     0.0280
     98 H         8.776573   5.050916   -4.596458 H        1 UNL1     0.0280
     99 H         9.833508   6.158325   -3.671113 H        1 UNL1     0.0280
     100 H         12.002179   3.697647   -2.632931 H        1 UNL1     0.2922
     101 H         2.028566   3.859734   3.419429 H        1 UNL1     0.0236
     102 H         3.035545   5.045479   2.499612 H        1 UNL1     0.0236
     103 H         3.479731   4.529571   4.09712 H        1 UNL1     0.0236
     104 H         1.782786   2.433604   3.732574 H        1 UNL1     0.2098
     105 H         1.727152   -0.125374   -0.109609 H        1 UNL1     0.0234
     106 H         0.819108   -0.577667   1.360759 H        1 UNL1     0.0234
     107 H         0.0   -0.0   0.0 H        1 UNL1     0.0234
     108 H         0.964769   4.24972   -0.031012 H        1 UNL1     0.2098
     109 H         3.397518   -0.03901   -2.642026 H        1 UNL1     0.0234
     110 H         2.735891   0.698343   -1.148251 H        1 UNL1     0.0234
     111 H         2.20382   -0.864352   -1.661796 H        1 UNL1     0.0234
     112 H         -1.85353   -3.029273   -2.592041 H        1 UNL1     0.0342
     113 H         -1.734037   -2.828711   -0.807739 H        1 UNL1     0.0342
     114 H         -3.290988   -2.659347   -1.62333 H        1 UNL1     0.0342
     115 H         -2.282053   2.48583   -3.07179 H        1 UNL1     0.0234
     116 H         -1.896727   3.818925   -1.978553 H        1 UNL1     0.0234
     117 H         -0.816517   3.319517   -3.296652 H        1 UNL1     0.0234
     118 H         5.404753   2.5344   -4.613824 H        1 UNL1     0.0309
     119 H         6.959859   2.044637   -3.872314 H        1 UNL1     0.0309
     120 H         5.425316   1.485346   -3.244199 H        1 UNL1     0.0309
     121 H         1.682541   5.031425   -3.722173 H        1 UNL1     0.0524
     122 H         1.856882   4.023588   -5.164645 H        1 UNL1     0.0524
     123 H         0.266049   4.716288   -4.760713 H        1 UNL1     0.0524
@<TRIPOS>BOND
     1     1     2    1
     2     1    42    1
     3     2     3    2
     4     3     4    1
     5     4     5    2
     6     5     7    1
     7     6    75    1
     8     6    76    1
     9     6    77    1
    10     7     9   am
    11     9    10    1
    12    10    11    2
    13    10    43    1
    14    11    14    1
    15    11    15    1
    16    12    13   ar
    17    12    27   ar
    18    12    43    1
    19    13    14    1
    20    13    30   ar
    21    14    17    2
    22    15    16    1
    23    16    17    1
    24    16    18    1
    25    16    22    1
    26    18    19    1
    27    19    20    1
    28    20    21    1
    29    21    22    1
    30    23    24    1
    31    23    88    1
    32    23    89    1
    33    24    25    1
    34    24    26    1
    35    24    90    1
    36    25    91    1
    37    25    92    1
    38    25    93    1
    39    26    94    1
    40    26    95    1
    41    26    96    1
    42    27    28   ar
    43    28    29   ar
    44    29    30   ar
    45    29    31    1
    46    30    33    1
    47    31    32    1
    48    32    33    1
    49    32    35    1
    50    34    97    1
    51    34    98    1
    52    34    99    1
    53    35    61    1
    54    36    37    1
    55    36    60    1
    56    37    38    1
    57    38    39    1
    58    39    40    1
    59    40    41    1
    60    41    42    1
    61    45   100    1
    62    47   101    1
    63    47   102    1
    64    47   103    1
    65    48   104    1
    66    49   105    1
    67    49   106    1
    68    49   107    1
    69    50   108    1
    70    51    59    1
    71    52   109    1
    72    52   110    1
    73    52   111    1
    74    53    54    1
    75    54    55    2
    76    54    56    1
    77    56   112    1
    78    56   113    1
    79    56   114    1
    80    57   115    1
    81    57   116    1
    82    57   117    1
    83    58   118    1
    84    58   119    1
    85    58   120    1
    86    59   121    1
    87    59   122    1
    88    59   123    1
    89    60    61    2
    90     1    47    1
    91     1    62    1
    92     2    63    1
    93     3    64    1
    94     4    65    1
    95     5     6    1
    96     7     8    2
    97     9    78    1
    98    15    79    1
    99    18    80    1
   100    18    81    1
   101    19    82    1
   102    19    83    1
   103    20    23    1
   104    21    84    1
   105    21    85    1
   106    22    86    1
   107    22    87    1
   108    27    45    1
   109    28    34    1
   110    32    58    1
   111    33    46    2
   112    36    51    1
   113    36    66    1
   114    37    52    1
   115    37    67    1
   116    38    53    1
   117    38    68    1
   118    42    48    1
   119    42    72    1
   120    43    44    2
   121    60    73    1
   122    61    74    1
   123    39    69    1
   124    39    57    1
   125    40    70    1
   126    40    50    1
   127    41    71    1
   128    41    49    1
