@<TRIPOS>MOLECULE
*****
 123 128 0 0 0
SMALL
GASTEIGER

@<TRIPOS>ATOM
     1 C         4.210576   -2.009623   -2.000791 C.3        1 UNL1     0.0009
     2 C         5.792648   -2.86224   -1.545675 C.2        1 UNL1     -0.0787
     3 C         7.167468   -2.802261   -1.095878 C.2        1 UNL1     -0.0649
     4 C         8.193368   -4.092653   -0.710166 C.2        1 UNL1     -0.0542
     5 C         9.367467   -4.474902   -0.015576 C.2        1 UNL1     0.0115
     6 C         10.612217   -3.934592   0.740721 C.3        1 UNL1     -0.0348
     7 C         9.603792   -6.027966   0.314777 C.2        1 UNL1     0.2441
     8 O         10.370436   -6.735102   -0.324551 O.2        1 UNL1     -0.2702
     9 N         9.072892   -6.456064   1.544016 N.am        1 UNL1     -0.2772
     10 C         7.765439   -6.855972   1.389219 C.2        1 UNL1     0.1049
     11 C         6.857598   -5.896924   1.405742 C.2        1 UNL1     0.0801
     12 C         6.283638   -8.287092   -0.029758 C.ar        1 UNL1     0.0753
     13 C         5.430318   -7.144636   -0.15324 C.ar        1 UNL1     0.0305
     14 C         5.624064   -5.952443   0.669068 C.2        1 UNL1     0.0924
     15 N         6.972226   -4.60494   1.758112 N.pl3        1 UNL1     -0.3170
     16 C         5.652414   -4.031939   1.76257 C.3        1 UNL1     0.1275
     17 N         4.880458   -4.85341   0.75908 N.2        1 UNL1     -0.2557
     18 C         5.032814   -4.334268   3.123597 C.3        1 UNL1     0.0016
     19 C         5.954009   -3.797297   4.20741 C.3        1 UNL1     0.0026
     20 N         6.118367   -2.363286   4.013429 N.3        1 UNL1     -0.3018
     21 C         6.651503   -1.969614   2.707612 C.3        1 UNL1     0.0026
     22 C         5.708291   -2.515387   1.634124 C.3        1 UNL1     0.0016
     23 C         6.727269   -1.706221   5.152791 C.3        1 UNL1     0.0012
     24 C         7.504605   -0.459044   4.703286 C.3        1 UNL1     -0.0339
     25 C         7.095539   0.781296   5.514629 C.3        1 UNL1     -0.0615
     26 C         8.998777   -0.71685   4.791404 C.3        1 UNL1     -0.0615
     27 C         6.020851   -9.463102   -0.728372 C.ar        1 UNL1     0.1347
     28 C         4.917306   -9.628644   -1.546194 C.ar        1 UNL1     0.0342
     29 C         4.118191   -8.474661   -1.690771 C.ar        1 UNL1     0.1435
     30 C         4.389257   -7.278354   -1.025494 C.ar        1 UNL1     0.0774
     31 O         2.948455   -8.507492   -2.365786 O.3        1 UNL1     -0.4436
     32 C         2.231293   -7.352409   -1.904989 C.3        1 UNL1     0.3143
     33 C         3.295915   -6.403144   -1.393432 C.2        1 UNL1     0.2504
     34 C         4.43568   -10.930105   -2.124411 C.3        1 UNL1     -0.0327
     35 O         1.637456   -6.733733   -3.052965 O.2        1 UNL1     -0.4528
     36 C         -1.535896   -5.062675   -1.809787 C.3        1 UNL1     0.0854
     37 C         -1.713159   -3.976998   -0.679564 C.3        1 UNL1     0.0236
     38 C         -2.472682   -2.641284   -1.138625 C.3        1 UNL1     0.1131
     39 C         -1.996672   -1.874448   -2.43772 C.3        1 UNL1     0.0200
     40 C         -0.37187   -1.636411   -2.730629 C.3        1 UNL1     0.0661
     41 C         0.755465   -1.01136   -1.627889 C.3        1 UNL1     0.0091
     42 C         2.543495   -1.367153   -1.423528 C.3        1 UNL1     0.0661
     43 C         7.407709   -8.208339   0.935914 C.2        1 UNL1     0.2131
     44 O         7.948459   -9.185837   1.420503 O.2        1 UNL1     -0.2851
     45 O         6.926116   -10.512948   -0.587808 O.3        1 UNL1     -0.5056
     46 O         3.258579   -5.194891   -1.325724 O.2        1 UNL1     -0.2836
     47 C         4.341169   -1.338767   -3.394663 C.3        1 UNL1     -0.0566
     48 O         2.935294   0.061003   -1.346192 O.3        1 UNL1     -0.3909
     49 C         0.142744   -1.021345   -0.24515 C.3        1 UNL1     -0.0577
     50 O         0.181951   -2.743741   -3.412411 O.3        1 UNL1     -0.3910
     51 O         -1.903576   -4.663238   -3.110822 O.3        1 UNL1     -0.3753
     52 C         -0.489475   -3.944779   0.293324 C.3        1 UNL1     -0.0564
     53 O         -2.936633   -1.790269   0.007171 O.3        1 UNL1     -0.4608
     54 C         -2.158988   -0.903439   0.704832 C.2        1 UNL1     0.3042
     55 O         -1.008421   -0.55362   0.444714 O.2        1 UNL1     -0.2512
     56 C         -2.862184   -0.279149   1.876366 C.3        1 UNL1     0.0332
     57 C         -2.907847   -2.373881   -3.653656 C.3        1 UNL1     -0.0567
     58 C         1.366409   -7.821693   -0.711977 C.3        1 UNL1     0.0210
     59 C         -3.295311   -4.780075   -3.402862 C.3        1 UNL1     0.0372
     60 C         -0.171554   -5.648886   -1.910224 C.2        1 UNL1     -0.0208
     61 C         0.587939   -5.892878   -2.979047 C.2        1 UNL1     0.0882
     62 H         3.751797   -2.99162   -2.167864 H        1 UNL1     0.0365
     63 H         5.538954   -3.898948   -1.776643 H        1 UNL1     0.0576
     64 H         7.631843   -1.859366   -0.798535 H        1 UNL1     0.0615
     65 H         7.67696   -4.966576   -1.116446 H        1 UNL1     0.0622
     66 H         -2.19652   -5.887121   -1.50662 H        1 UNL1     0.0645
     67 H         -2.451802   -4.424136   0.00821 H        1 UNL1     0.0362
     68 H         -3.454955   -3.066934   -1.394523 H        1 UNL1     0.0741
     69 H         -2.38248   -0.864206   -2.406539 H        1 UNL1     0.0359
     70 H         -0.430964   -0.840651   -3.497659 H        1 UNL1     0.0600
     71 H         0.698677   0.065125   -1.882669 H        1 UNL1     0.0348
     72 H         2.282132   -1.700024   -2.438516 H        1 UNL1     0.0602
     73 H         0.128826   -6.000267   -0.954424 H        1 UNL1     0.0628
     74 H         0.380267   -5.517713   -3.981724 H        1 UNL1     0.1022
     75 H         10.337869   -3.629015   1.779176 H        1 UNL1     0.0279
     76 H         11.421305   -4.641419   0.910553 H        1 UNL1     0.0279
     77 H         10.982861   -2.98562   0.326262 H        1 UNL1     0.0279
     78 H         9.08061   -5.684064   2.207366 H        1 UNL1     0.1553
     79 H         7.723217   -4.244788   2.317788 H        1 UNL1     0.1484
     80 H         4.040329   -3.870544   3.175559 H        1 UNL1     0.0317
     81 H         4.882815   -5.411284   3.2547 H        1 UNL1     0.0317
     82 H         6.926684   -4.310925   4.206283 H        1 UNL1     0.0428
     83 H         5.494135   -4.025132   5.169521 H        1 UNL1     0.0428
     84 H         6.690091   -0.886112   2.558126 H        1 UNL1     0.0428
     85 H         7.693006   -2.294284   2.576544 H        1 UNL1     0.0428
     86 H         6.053342   -2.098233   0.706271 H        1 UNL1     0.0317
     87 H         4.710202   -2.076604   1.754059 H        1 UNL1     0.0317
     88 H         5.92593   -1.391826   5.834191 H        1 UNL1     0.0429
     89 H         7.373221   -2.395164   5.712145 H        1 UNL1     0.0429
     90 H         7.295587   -0.267944   3.644038 H        1 UNL1     0.0308
     91 H         7.198995   1.695642   4.922707 H        1 UNL1     0.0233
     92 H         6.063103   0.693139   5.860914 H        1 UNL1     0.0233
     93 H         7.709445   0.913274   6.413816 H        1 UNL1     0.0233
     94 H         9.449804   -0.068531   5.550413 H        1 UNL1     0.0233
     95 H         9.1823   -1.754897   5.082504 H        1 UNL1     0.0233
     96 H         9.493792   -0.525604   3.835186 H        1 UNL1     0.0233
     97 H         3.651214   -11.378173   -1.52185 H        1 UNL1     0.0280
     98 H         4.008923   -10.804304   -3.128059 H        1 UNL1     0.0280
     99 H         5.275729   -11.641468   -2.182497 H        1 UNL1     0.0280
     100 H         6.619408   -11.225763   -0.05541 H        1 UNL1     0.2922
     101 H         4.924757   -1.977795   -4.057026 H        1 UNL1     0.0236
     102 H         4.740118   -0.326059   -3.347281 H        1 UNL1     0.0236
     103 H         3.364848   -1.232993   -3.896463 H        1 UNL1     0.0236
     104 H         3.123195   0.364975   -2.255733 H        1 UNL1     0.2098
     105 H         -0.82349   -1.515977   -0.185646 H        1 UNL1     0.0234
     106 H         0.802409   -1.384921   0.542621 H        1 UNL1     0.0234
     107 H         0.0   0.0   0.0 H        1 UNL1     0.0234
     108 H         0.530227   -3.356219   -2.736139 H        1 UNL1     0.2098
     109 H         -0.581857   -3.155031   1.051925 H        1 UNL1     0.0234
     110 H         -0.305485   -4.905866   0.785466 H        1 UNL1     0.0234
     111 H         0.446917   -3.735695   -0.240905 H        1 UNL1     0.0234
     112 H         -3.828705   0.123722   1.558753 H        1 UNL1     0.0342
     113 H         -2.982833   -0.978899   2.701979 H        1 UNL1     0.0342
     114 H         -2.250109   0.558947   2.237094 H        1 UNL1     0.0342
     115 H         -2.58167   -1.945306   -4.61132 H        1 UNL1     0.0234
     116 H         -2.934823   -3.458954   -3.771714 H        1 UNL1     0.0234
     117 H         -3.948777   -2.01102   -3.601323 H        1 UNL1     0.0234
     118 H         1.675615   -7.347729   0.236051 H        1 UNL1     0.0309
     119 H         0.295793   -7.652292   -0.864583 H        1 UNL1     0.0309
     120 H         1.477899   -8.89211   -0.507324 H        1 UNL1     0.0309
     121 H         -3.40878   -4.747131   -4.486096 H        1 UNL1     0.0524
     122 H         -3.717104   -5.737322   -3.053855 H        1 UNL1     0.0524
     123 H         -3.845582   -3.963901   -2.943345 H        1 UNL1     0.0524
@<TRIPOS>BOND
     1     1     2    1
     2     1    42    1
     3     2     3    2
     4     3     4    1
     5     4     5    2
     6     5     7    1
     7     6    75    1
     8     6    76    1
     9     6    77    1
    10     7     9   am
    11     9    10    1
    12    10    11    2
    13    10    43    1
    14    11    14    1
    15    11    15    1
    16    12    13   ar
    17    12    27   ar
    18    12    43    1
    19    13    14    1
    20    13    30   ar
    21    14    17    2
    22    15    16    1
    23    16    17    1
    24    16    18    1
    25    16    22    1
    26    18    19    1
    27    19    20    1
    28    20    21    1
    29    21    22    1
    30    23    24    1
    31    23    88    1
    32    23    89    1
    33    24    25    1
    34    24    26    1
    35    24    90    1
    36    25    91    1
    37    25    92    1
    38    25    93    1
    39    26    94    1
    40    26    95    1
    41    26    96    1
    42    27    28   ar
    43    28    29   ar
    44    29    30   ar
    45    29    31    1
    46    30    33    1
    47    31    32    1
    48    32    33    1
    49    32    35    1
    50    34    97    1
    51    34    98    1
    52    34    99    1
    53    35    61    1
    54    36    37    1
    55    36    60    1
    56    37    38    1
    57    38    39    1
    58    39    40    1
    59    40    41    1
    60    41    42    1
    61    45   100    1
    62    47   101    1
    63    47   102    1
    64    47   103    1
    65    48   104    1
    66    49   105    1
    67    49   106    1
    68    49   107    1
    69    50   108    1
    70    51    59    1
    71    52   109    1
    72    52   110    1
    73    52   111    1
    74    53    54    1
    75    54    55    2
    76    54    56    1
    77    56   112    1
    78    56   113    1
    79    56   114    1
    80    57   115    1
    81    57   116    1
    82    57   117    1
    83    58   118    1
    84    58   119    1
    85    58   120    1
    86    59   121    1
    87    59   122    1
    88    59   123    1
    89    60    61    2
    90     1    47    1
    91     1    62    1
    92     2    63    1
    93     3    64    1
    94     4    65    1
    95     5     6    1
    96     7     8    2
    97     9    78    1
    98    15    79    1
    99    18    80    1
   100    18    81    1
   101    19    82    1
   102    19    83    1
   103    20    23    1
   104    21    84    1
   105    21    85    1
   106    22    86    1
   107    22    87    1
   108    27    45    1
   109    28    34    1
   110    32    58    1
   111    33    46    2
   112    36    51    1
   113    36    66    1
   114    37    52    1
   115    37    67    1
   116    38    53    1
   117    38    68    1
   118    42    48    1
   119    42    72    1
   120    43    44    2
   121    60    73    1
   122    61    74    1
   123    39    69    1
   124    39    57    1
   125    40    70    1
   126    40    50    1
   127    41    71    1
   128    41    49    1
