@<TRIPOS>MOLECULE
*****
 123 128 0 0 0
SMALL
GASTEIGER

@<TRIPOS>ATOM
     1 C         1.754504   -5.102598   -0.916172 C.3        1 UNL1     0.0009
     2 C         1.752124   -6.52519   -2.104979 C.2        1 UNL1     -0.0787
     3 C         1.278573   -7.837209   -2.492797 C.2        1 UNL1     -0.0649
     4 C         1.592253   -8.673553   -3.931021 C.2        1 UNL1     -0.0542
     5 C         1.155507   -9.713467   -4.788289 C.2        1 UNL1     0.0115
     6 C         0.173228   -10.910573   -4.912345 C.3        1 UNL1     -0.0348
     7 C         1.69071   -9.749298   -6.301321 C.2        1 UNL1     0.2441
     8 O         2.573199   -10.508553   -6.677178 O.2        1 UNL1     -0.2702
     9 N         0.901859   -9.037938   -7.222099 N.am        1 UNL1     -0.2772
     10 C         1.303461   -7.723309   -7.283649 C.2        1 UNL1     0.1049
     11 C         0.820294   -6.922838   -6.350901 C.2        1 UNL1     0.0801
     12 C         3.330224   -6.27779   -7.528676 C.ar        1 UNL1     0.0753
     13 C         2.865625   -5.566269   -6.376941 C.ar        1 UNL1     0.0305
     14 C         1.527888   -5.784227   -5.831043 C.2        1 UNL1     0.0924
     15 N         -0.169382   -7.127532   -5.464802 N.pl3        1 UNL1     -0.3170
     16 C         -0.418897   -5.881902   -4.789228 C.3        1 UNL1     0.1275
     17 N         0.900864   -5.151806   -4.843211 N.2        1 UNL1     -0.2557
     18 C         -1.382119   -5.080476   -5.659643 C.3        1 UNL1     0.0016
     19 C         -2.625308   -5.919498   -5.90887 C.3        1 UNL1     0.0026
     20 N         -3.230448   -6.251436   -4.62643 N.3        1 UNL1     -0.3018
     21 C         -2.35862   -6.970384   -3.695087 C.3        1 UNL1     0.0026
     22 C         -1.11851   -6.107508   -3.455365 C.3        1 UNL1     0.0016
     23 C         -4.570549   -6.78779   -4.757184 C.3        1 UNL1     0.0012
     24 C         -5.426526   -5.884695   -5.659114 C.3        1 UNL1     -0.0339
     25 C         -6.835221   -5.681866   -5.077311 C.3        1 UNL1     -0.0615
     26 C         -4.720788   -4.559699   -5.889545 C.3        1 UNL1     -0.0615
     27 C         4.55779   -5.978896   -8.115075 C.ar        1 UNL1     0.1347
     28 C         5.386711   -4.966862   -7.664821 C.ar        1 UNL1     0.0342
     29 C         4.931421   -4.312527   -6.500467 C.ar        1 UNL1     0.1435
     30 C         3.720906   -4.625559   -5.880883 C.ar        1 UNL1     0.0774
     31 O         5.571959   -3.232094   -6.00309 O.3        1 UNL1     -0.4436
     32 C         4.600296   -2.588411   -5.164988 C.3        1 UNL1     0.3143
     33 C         3.615789   -3.677959   -4.791033 C.2        1 UNL1     0.2504
     34 C         6.588813   -4.42491   -8.386859 C.3        1 UNL1     -0.0327
     35 O         5.269172   -2.198719   -3.95917 O.2        1 UNL1     -0.4528
     36 C         3.470726   0.909571   -2.729448 C.3        1 UNL1     0.0854
     37 C         1.945592   1.104873   -2.378239 C.3        1 UNL1     0.0236
     38 C         1.658035   1.664883   -0.903301 C.3        1 UNL1     0.1131
     39 C         2.328442   0.964898   0.346837 C.3        1 UNL1     0.0200
     40 C         2.377488   -0.698729   0.458089 C.3        1 UNL1     0.0661
     41 C         1.062318   -1.748225   0.242465 C.3        1 UNL1     0.0091
     42 C         0.998935   -3.454385   -0.428655 C.3        1 UNL1     0.0661
     43 C         2.421424   -7.284005   -8.131896 C.2        1 UNL1     0.2131
     44 O         2.506786   -7.661639   -9.286384 O.2        1 UNL1     -0.2851
     45 O         4.956421   -6.74924   -9.205534 O.3        1 UNL1     -0.5056
     46 O         2.918185   -3.757058   -3.804653 O.2        1 UNL1     -0.2836
     47 C         2.571456   -5.462528   0.353875 C.3        1 UNL1     -0.0566
     48 O         0.157255   -3.978851   0.6739 O.3        1 UNL1     -0.3909
     49 C         -0.074911   -0.981038   -0.394426 C.3        1 UNL1     -0.0577
     50 O         3.517996   -1.211649   -0.200605 O.3        1 UNL1     -0.3910
     51 O         4.375517   1.08051   -1.661945 O.3        1 UNL1     -0.3753
     52 C         1.050982   0.00586   -3.039142 C.3        1 UNL1     -0.0564
     53 O         0.257164   2.169274   -0.714949 O.3        1 UNL1     -0.4608
     54 C         -0.280459   2.599472   0.469881 C.2        1 UNL1     0.3042
     55 O         -0.533641   3.75789   0.798217 O.2        1 UNL1     -0.2512
     56 C         -0.630395   1.482975   1.412056 C.3        1 UNL1     0.0332
     57 C         3.663016   1.774804   0.694893 C.3        1 UNL1     -0.0567
     58 C         3.878833   -1.547098   -6.051942 C.3        1 UNL1     0.0210
     59 C         5.720678   1.350514   -2.053743 C.3        1 UNL1     0.0372
     60 C         3.806476   -0.389862   -3.372804 C.2        1 UNL1     -0.0208
     61 C         4.806551   -1.239493   -3.134637 C.2        1 UNL1     0.0882
     62 H         2.438022   -4.568136   -1.586892 H        1 UNL1     0.0365
     63 H         2.509644   -6.195159   -2.818921 H        1 UNL1     0.0576
     64 H         0.505374   -8.358035   -1.923577 H        1 UNL1     0.0615
     65 H         2.423279   -8.121064   -4.377827 H        1 UNL1     0.0622
     66 H         3.68169   1.681987   -3.482385 H        1 UNL1     0.0645
     67 H         1.634176   1.960428   -3.002423 H        1 UNL1     0.0362
     68 H         2.14438   2.649143   -0.982191 H        1 UNL1     0.0741
     69 H         1.782452   1.246107   1.237469 H        1 UNL1     0.0359
     70 H         2.606207   -0.811151   1.535173 H        1 UNL1     0.0600
     71 H         0.708416   -1.832114   1.288731 H        1 UNL1     0.0348
     72 H         2.046102   -3.280132   -0.141613 H        1 UNL1     0.0602
     73 H         3.171213   -0.539402   -4.210257 H        1 UNL1     0.0628
     74 H         5.464711   -1.189431   -2.266561 H        1 UNL1     0.1022
     75 H         -0.057063   -11.119175   -5.984952 H        1 UNL1     0.0279
     76 H         0.534896   -11.873532   -4.558828 H        1 UNL1     0.0279
     77 H         -0.827169   -10.682625   -4.516179 H        1 UNL1     0.0279
     78 H         -0.069864   -9.047535   -6.919213 H        1 UNL1     0.1553
     79 H         -0.867632   -7.841254   -5.56471 H        1 UNL1     0.1484
     80 H         -1.62832   -4.141486   -5.149301 H        1 UNL1     0.0317
     81 H         -0.914105   -4.806634   -6.611286 H        1 UNL1     0.0317
     82 H         -2.394715   -6.827889   -6.484687 H        1 UNL1     0.0428
     83 H         -3.297735   -5.329909   -6.532789 H        1 UNL1     0.0428
     84 H         -2.809572   -7.136966   -2.711876 H        1 UNL1     0.0428
     85 H         -2.12156   -7.981256   -4.054611 H        1 UNL1     0.0428
     86 H         -0.570549   -6.599085   -2.673011 H        1 UNL1     0.0317
     87 H         -1.408715   -5.152518   -3.000534 H        1 UNL1     0.0317
     88 H         -4.497694   -7.779071   -5.223391 H        1 UNL1     0.0429
     89 H         -5.041539   -6.927822   -3.775688 H        1 UNL1     0.0429
     90 H         -5.520612   -6.349816   -6.64756 H        1 UNL1     0.0308
     91 H         -6.980294   -4.652389   -4.736381 H        1 UNL1     0.0233
     92 H         -7.598624   -5.924571   -5.820224 H        1 UNL1     0.0233
     93 H         -7.028982   -6.332522   -4.215952 H        1 UNL1     0.0233
     94 H         -4.818903   -3.920711   -5.005292 H        1 UNL1     0.0233
     95 H         -3.654999   -4.729771   -6.065989 H        1 UNL1     0.0233
     96 H         -5.140334   -4.028161   -6.748275 H        1 UNL1     0.0233
     97 H         7.45739   -5.066208   -8.2705 H        1 UNL1     0.0280
     98 H         6.419306   -4.341828   -9.468349 H        1 UNL1     0.0280
     99 H         6.839662   -3.427873   -7.989255 H        1 UNL1     0.0280
     100 H         5.886699   -6.779369   -9.34445 H        1 UNL1     0.2922
     101 H         2.622097   -6.545586   0.463768 H        1 UNL1     0.0236
     102 H         2.198759   -4.976975   1.255162 H        1 UNL1     0.0236
     103 H         3.623029   -5.139749   0.275135 H        1 UNL1     0.0236
     104 H         -0.725086   -4.176274   0.303132 H        1 UNL1     0.2098
     105 H         -0.017246   -0.90943   -1.477643 H        1 UNL1     0.0234
     106 H         -1.069883   -1.305223   -0.089695 H        1 UNL1     0.0234
     107 H         0.0   0.0   0.0 H        1 UNL1     0.0234
     108 H         3.581224   -0.760858   -1.064641 H        1 UNL1     0.2098
     109 H         0.251406   0.436871   -3.657704 H        1 UNL1     0.0234
     110 H         1.623344   -0.716337   -3.631236 H        1 UNL1     0.0234
     111 H         0.543809   -0.610612   -2.28503 H        1 UNL1     0.0234
     112 H         -0.213903   0.540638   1.043437 H        1 UNL1     0.0342
     113 H         -0.297849   1.68585   2.428963 H        1 UNL1     0.0342
     114 H         -1.724267   1.382213   1.433418 H        1 UNL1     0.0342
     115 H         4.196979   2.091093   -0.211767 H        1 UNL1     0.0234
     116 H         3.495886   2.664785   1.304851 H        1 UNL1     0.0234
     117 H         4.433189   1.160632   1.192455 H        1 UNL1     0.0234
     118 H         4.582693   -0.820588   -6.494403 H        1 UNL1     0.0309
     119 H         3.283978   -2.001481   -6.85062 H        1 UNL1     0.0309
     120 H         3.188888   -0.915319   -5.48191 H        1 UNL1     0.0309
     121 H         6.320566   1.420241   -1.146754 H        1 UNL1     0.0524
     122 H         6.146467   0.542813   -2.672095 H        1 UNL1     0.0524
     123 H         5.770521   2.28304   -2.608724 H        1 UNL1     0.0524
@<TRIPOS>BOND
     1     1     2    1
     2     1    42    1
     3     2     3    2
     4     3     4    1
     5     4     5    2
     6     5     7    1
     7     6    75    1
     8     6    76    1
     9     6    77    1
    10     7     9   am
    11     9    10    1
    12    10    11    2
    13    10    43    1
    14    11    14    1
    15    11    15    1
    16    12    13   ar
    17    12    27   ar
    18    12    43    1
    19    13    14    1
    20    13    30   ar
    21    14    17    2
    22    15    16    1
    23    16    17    1
    24    16    18    1
    25    16    22    1
    26    18    19    1
    27    19    20    1
    28    20    21    1
    29    21    22    1
    30    23    24    1
    31    23    88    1
    32    23    89    1
    33    24    25    1
    34    24    26    1
    35    24    90    1
    36    25    91    1
    37    25    92    1
    38    25    93    1
    39    26    94    1
    40    26    95    1
    41    26    96    1
    42    27    28   ar
    43    28    29   ar
    44    29    30   ar
    45    29    31    1
    46    30    33    1
    47    31    32    1
    48    32    33    1
    49    32    35    1
    50    34    97    1
    51    34    98    1
    52    34    99    1
    53    35    61    1
    54    36    37    1
    55    36    60    1
    56    37    38    1
    57    38    39    1
    58    39    40    1
    59    40    41    1
    60    41    42    1
    61    45   100    1
    62    47   101    1
    63    47   102    1
    64    47   103    1
    65    48   104    1
    66    49   105    1
    67    49   106    1
    68    49   107    1
    69    50   108    1
    70    51    59    1
    71    52   109    1
    72    52   110    1
    73    52   111    1
    74    53    54    1
    75    54    55    2
    76    54    56    1
    77    56   112    1
    78    56   113    1
    79    56   114    1
    80    57   115    1
    81    57   116    1
    82    57   117    1
    83    58   118    1
    84    58   119    1
    85    58   120    1
    86    59   121    1
    87    59   122    1
    88    59   123    1
    89    60    61    2
    90     1    47    1
    91     1    62    1
    92     2    63    1
    93     3    64    1
    94     4    65    1
    95     5     6    1
    96     7     8    2
    97     9    78    1
    98    15    79    1
    99    18    80    1
   100    18    81    1
   101    19    82    1
   102    19    83    1
   103    20    23    1
   104    21    84    1
   105    21    85    1
   106    22    86    1
   107    22    87    1
   108    27    45    1
   109    28    34    1
   110    32    58    1
   111    33    46    2
   112    36    51    1
   113    36    66    1
   114    37    52    1
   115    37    67    1
   116    38    53    1
   117    38    68    1
   118    42    48    1
   119    42    72    1
   120    43    44    2
   121    60    73    1
   122    61    74    1
   123    39    69    1
   124    39    57    1
   125    40    70    1
   126    40    50    1
   127    41    71    1
   128    41    49    1
