@<TRIPOS>MOLECULE
*****
 123 128 0 0 0
SMALL
GASTEIGER

@<TRIPOS>ATOM
     1 C         5.168873   1.741264   0.499948 C.3        1 UNL1     0.0009
     2 C         6.60823   2.545094   -0.348075 C.2        1 UNL1     -0.0787
     3 C         7.891101   2.444888   -1.011587 C.2        1 UNL1     -0.0649
     4 C         8.771703   3.678588   -1.76583 C.2        1 UNL1     -0.0542
     5 C         9.793778   3.96957   -2.702723 C.2        1 UNL1     0.0115
     6 C         10.922519   3.342311   -3.566329 C.3        1 UNL1     -0.0348
     7 C         9.892391   5.452599   -3.309263 C.2        1 UNL1     0.2441
     8 O         10.71686   6.273057   -2.930285 O.2        1 UNL1     -0.2702
     9 N         9.144493   5.660535   -4.481254 N.am        1 UNL1     -0.2772
     10 C         7.861824   6.049189   -4.169754 C.2        1 UNL1     0.1049
     11 C         7.014077   5.079089   -3.879143 C.2        1 UNL1     0.0801
     12 C         6.563431   7.657985   -2.761463 C.ar        1 UNL1     0.0753
     13 C         5.80191   6.531274   -2.315126 C.ar        1 UNL1     0.0305
     14 C         5.917983   5.22531   -2.960136 C.2        1 UNL1     0.0924
     15 N         7.13497   3.749907   -4.037843 N.pl3        1 UNL1     -0.3170
     16 C         5.863673   3.152691   -3.725768 C.3        1 UNL1     0.1275
     17 N         5.22703   4.109017   -2.747069 N.2        1 UNL1     -0.2557
     18 C         5.013085   3.212872   -4.990909 C.3        1 UNL1     0.0016
     19 C         5.768873   2.52749   -6.118129 C.3        1 UNL1     0.0026
     20 N         6.036277   1.149037   -5.731622 N.3        1 UNL1     -0.3018
     21 C         6.797263   0.987664   -4.490966 C.3        1 UNL1     0.0026
     22 C         6.017634   1.679508   -3.371401 C.3        1 UNL1     0.0016
     23 C         6.481454   0.328679   -6.840438 C.3        1 UNL1     0.0012
     24 C         5.327323   0.080808   -7.824459 C.3        1 UNL1     -0.0339
     25 C         5.356387   1.083786   -8.989468 C.3        1 UNL1     -0.0615
     26 C         5.36541   -1.354025   -8.321032 C.3        1 UNL1     -0.0615
     27 C         6.359754   8.926059   -2.222371 C.ar        1 UNL1     0.1347
     28 C         5.399456   9.197183   -1.264054 C.ar        1 UNL1     0.0342
     29 C         4.695398   8.063854   -0.804672 C.ar        1 UNL1     0.1435
     30 C         4.913778   6.781428   -1.309562 C.ar        1 UNL1     0.0774
     31 O         3.653117   8.179106   0.047016 O.3        1 UNL1     -0.4436
     32 C         2.929829   6.947354   -0.096212 C.3        1 UNL1     0.3143
     33 C         3.94254   5.95265   -0.626487 C.2        1 UNL1     0.2504
     34 C         4.95392   10.56402   -0.824333 C.3        1 UNL1     -0.0327
     35 O         2.566281   6.511383   1.219468 O.2        1 UNL1     -0.4528
     36 C         -0.678986   4.584025   0.817453 C.3        1 UNL1     0.0854
     37 C         -0.984654   3.323773   -0.080242 C.3        1 UNL1     0.0236
     38 C         -1.588454   2.063748   0.706845 C.3        1 UNL1     0.1131
     39 C         -0.865722   1.531909   2.009563 C.3        1 UNL1     0.0200
     40 C         0.795176   1.383869   2.053592 C.3        1 UNL1     0.0661
     41 C         1.755383   0.613426   0.886531 C.3        1 UNL1     0.0091
     42 C         3.464475   0.97333   0.325395 C.3        1 UNL1     0.0661
     43 C         7.515074   7.448689   -3.880762 C.2        1 UNL1     0.2131
     44 O         7.917536   8.346059   -4.598738 O.2        1 UNL1     -0.2851
     45 O         7.174361   9.959875   -2.679621 O.3        1 UNL1     -0.5056
     46 O         3.956493   4.749112   -0.495509 O.2        1 UNL1     -0.2836
     47 C         5.562131   1.311403   1.938888 C.3        1 UNL1     -0.0566
     48 O         3.910773   -0.438437   0.408152 O.3        1 UNL1     -0.3909
     49 C         0.922964   0.381908   -0.354828 C.3        1 UNL1     -0.0577
     50 O         1.396537   2.600885   2.447243 O.3        1 UNL1     -0.3910
     51 O         -0.805735   4.394746   2.20869 O.3        1 UNL1     -0.3753
     52 C         0.061524   3.161556   -1.230958 C.3        1 UNL1     -0.0564
     53 O         -2.191086   1.025538   -0.193867 O.3        1 UNL1     -0.4608
     54 C         -2.415938   -0.284065   0.141261 C.2        1 UNL1     0.3042
     55 O         -1.844503   -1.277982   -0.305316 O.2        1 UNL1     -0.2512
     56 C         -3.447422   -0.460459   1.219055 C.3        1 UNL1     0.0332
     57 C         -1.587891   2.20218   3.269478 C.3        1 UNL1     -0.0567
     58 C         1.856855   7.1939   -1.182247 C.3        1 UNL1     0.0210
     59 C         -1.14934   5.568014   2.944381 C.3        1 UNL1     0.0372
     60 C         0.651348   5.211069   0.589008 C.2        1 UNL1     -0.0208
     61 C         1.563456   5.645058   1.459903 C.2        1 UNL1     0.0882
     62 H         4.69429   2.726166   0.586255 H        1 UNL1     0.0365
     63 H         6.343394   3.59931   -0.243385 H        1 UNL1     0.0576
     64 H         8.347672   1.477315   -1.231708 H        1 UNL1     0.0615
     65 H         8.285412   4.594772   -1.419982 H        1 UNL1     0.0622
     66 H         -1.42198   5.331627   0.505849 H        1 UNL1     0.0645
     67 H         -1.848692   3.634349   -0.693055 H        1 UNL1     0.0362
     68 H         -2.535461   2.502107   1.056903 H        1 UNL1     0.0741
     69 H         -1.199103   0.521343   2.204556 H        1 UNL1     0.0359
     70 H         0.904456   0.723509   2.935092 H        1 UNL1     0.0600
     71 H         1.796698   -0.407737   1.313704 H        1 UNL1     0.0348
     72 H         3.357665   1.461849   1.304811 H        1 UNL1     0.0602
     73 H         0.771304   5.407977   -0.447373 H        1 UNL1     0.0628
     74 H         1.543773   5.43459   2.529741 H        1 UNL1     0.1022
     75 H         10.965071   2.236991   -3.413064 H        1 UNL1     0.0279
     76 H         10.810845   3.425101   -4.645098 H        1 UNL1     0.0279
     77 H         11.927496   3.64555   -3.238048 H        1 UNL1     0.0279
     78 H         9.082071   4.790598   -5.006029 H        1 UNL1     0.1553
     79 H         7.800641   3.320814   -4.654036 H        1 UNL1     0.1484
     80 H         4.050735   2.723421   -4.79833 H        1 UNL1     0.0317
     81 H         4.788504   4.249923   -5.262459 H        1 UNL1     0.0317
     82 H         6.700757   3.057347   -6.364618 H        1 UNL1     0.0428
     83 H         5.14532   2.583435   -7.010935 H        1 UNL1     0.0428
     84 H         6.915482   -0.055419   -4.181428 H        1 UNL1     0.0428
     85 H         7.828085   1.354124   -4.593092 H        1 UNL1     0.0428
     86 H         6.532136   1.428512   -2.462403 H        1 UNL1     0.0317
     87 H         5.037258   1.203371   -3.2479 H        1 UNL1     0.0317
     88 H         7.279229   0.869188   -7.366461 H        1 UNL1     0.0429
     89 H         6.912024   -0.617689   -6.488627 H        1 UNL1     0.0429
     90 H         4.373722   0.18904   -7.294229 H        1 UNL1     0.0308
     91 H         6.306158   1.037359   -9.530655 H        1 UNL1     0.0233
     92 H         4.536997   0.890811   -9.685866 H        1 UNL1     0.0233
     93 H         5.233025   2.119901   -8.651705 H        1 UNL1     0.0233
     94 H         4.670356   -1.482688   -9.1578 H        1 UNL1     0.0233
     95 H         6.370017   -1.599874   -8.676399 H        1 UNL1     0.0233
     96 H         5.088635   -2.057319   -7.530626 H        1 UNL1     0.0233
     97 H         4.159252   10.51556   -0.085832 H        1 UNL1     0.0280
     98 H         5.766734   11.132913   -0.354279 H        1 UNL1     0.0280
     99 H         4.582571   11.128974   -1.694978 H        1 UNL1     0.0280
     100 H         6.709007   10.710875   -3.003764 H        1 UNL1     0.2922
     101 H         4.697809   0.879149   2.442633 H        1 UNL1     0.0236
     102 H         6.013143   2.116163   2.518486 H        1 UNL1     0.0236
     103 H         6.31717   0.507594   1.939203 H        1 UNL1     0.0236
     104 H         4.328633   -0.564913   1.282433 H        1 UNL1     0.2098
     105 H         0.712488   1.280991   -0.928553 H        1 UNL1     0.0234
     106 H         1.292382   -0.406652   -1.010291 H        1 UNL1     0.0234
     107 H         0.0   -0.0   0.0 H        1 UNL1     0.0234
     108 H         1.197763   3.260055   1.754602 H        1 UNL1     0.2098
     109 H         1.08554   3.046599   -0.849006 H        1 UNL1     0.0234
     110 H         -0.171012   2.334693   -1.910641 H        1 UNL1     0.0234
     111 H         0.085153   4.044227   -1.883859 H        1 UNL1     0.0234
     112 H         -3.574754   -1.524183   1.441818 H        1 UNL1     0.0342
     113 H         -3.199379   0.100231   2.119024 H        1 UNL1     0.0342
     114 H         -4.406114   -0.078157   0.842334 H        1 UNL1     0.0342
     115 H         -2.652542   1.935366   3.319632 H        1 UNL1     0.0234
     116 H         -1.138369   1.941118   4.229595 H        1 UNL1     0.0234
     117 H         -1.646599   3.302555   3.20889 H        1 UNL1     0.0234
     118 H         0.955817   7.682232   -0.771552 H        1 UNL1     0.0309
     119 H         2.228543   7.781184   -2.027911 H        1 UNL1     0.0309
     120 H         1.467601   6.262456   -1.607686 H        1 UNL1     0.0309
     121 H         -0.345277   6.290509   2.807119 H        1 UNL1     0.0524
     122 H         -2.079838   6.033461   2.578909 H        1 UNL1     0.0524
     123 H         -1.264136   5.330667   3.998223 H        1 UNL1     0.0524
@<TRIPOS>BOND
     1     1     2    1
     2     1    42    1
     3     2     3    2
     4     3     4    1
     5     4     5    2
     6     5     7    1
     7     6    75    1
     8     6    76    1
     9     6    77    1
    10     7     9   am
    11     9    10    1
    12    10    11    2
    13    10    43    1
    14    11    14    1
    15    11    15    1
    16    12    13   ar
    17    12    27   ar
    18    12    43    1
    19    13    14    1
    20    13    30   ar
    21    14    17    2
    22    15    16    1
    23    16    17    1
    24    16    18    1
    25    16    22    1
    26    18    19    1
    27    19    20    1
    28    20    21    1
    29    21    22    1
    30    23    24    1
    31    23    88    1
    32    23    89    1
    33    24    25    1
    34    24    26    1
    35    24    90    1
    36    25    91    1
    37    25    92    1
    38    25    93    1
    39    26    94    1
    40    26    95    1
    41    26    96    1
    42    27    28   ar
    43    28    29   ar
    44    29    30   ar
    45    29    31    1
    46    30    33    1
    47    31    32    1
    48    32    33    1
    49    32    35    1
    50    34    97    1
    51    34    98    1
    52    34    99    1
    53    35    61    1
    54    36    37    1
    55    36    60    1
    56    37    38    1
    57    38    39    1
    58    39    40    1
    59    40    41    1
    60    41    42    1
    61    45   100    1
    62    47   101    1
    63    47   102    1
    64    47   103    1
    65    48   104    1
    66    49   105    1
    67    49   106    1
    68    49   107    1
    69    50   108    1
    70    51    59    1
    71    52   109    1
    72    52   110    1
    73    52   111    1
    74    53    54    1
    75    54    55    2
    76    54    56    1
    77    56   112    1
    78    56   113    1
    79    56   114    1
    80    57   115    1
    81    57   116    1
    82    57   117    1
    83    58   118    1
    84    58   119    1
    85    58   120    1
    86    59   121    1
    87    59   122    1
    88    59   123    1
    89    60    61    2
    90     1    47    1
    91     1    62    1
    92     2    63    1
    93     3    64    1
    94     4    65    1
    95     5     6    1
    96     7     8    2
    97     9    78    1
    98    15    79    1
    99    18    80    1
   100    18    81    1
   101    19    82    1
   102    19    83    1
   103    20    23    1
   104    21    84    1
   105    21    85    1
   106    22    86    1
   107    22    87    1
   108    27    45    1
   109    28    34    1
   110    32    58    1
   111    33    46    2
   112    36    51    1
   113    36    66    1
   114    37    52    1
   115    37    67    1
   116    38    53    1
   117    38    68    1
   118    42    48    1
   119    42    72    1
   120    43    44    2
   121    60    73    1
   122    61    74    1
   123    39    69    1
   124    39    57    1
   125    40    70    1
   126    40    50    1
   127    41    71    1
   128    41    49    1
