@<TRIPOS>MOLECULE
*****
 123 128 0 0 0
SMALL
GASTEIGER

@<TRIPOS>ATOM
     1 C         -3.639272   -0.972025   1.994052 C.3        1 UNL1     0.0009
     2 C         -4.468566   -0.19086   3.456614 C.2        1 UNL1     -0.0787
     3 C         -4.636174   -0.07084   4.889635 C.2        1 UNL1     -0.0649
     4 C         -5.589143   1.043446   5.736141 C.2        1 UNL1     -0.0542
     5 C         -5.804228   1.673576   6.986642 C.2        1 UNL1     0.0115
     6 C         -5.408886   1.652596   8.488836 C.3        1 UNL1     -0.0348
     7 C         -6.672388   3.02291   7.037505 C.2        1 UNL1     0.2441
     8 O         -7.839209   3.050014   7.403999 O.2        1 UNL1     -0.2702
     9 N         -5.930284   4.206879   6.883717 N.am        1 UNL1     -0.2772
     10 C         -5.809473   4.528234   5.551254 C.2        1 UNL1     0.1049
     11 C         -4.84472   3.915081   4.889803 C.2        1 UNL1     0.0801
     12 C         -7.135446   4.794694   3.446942 C.ar        1 UNL1     0.0753
     13 C         -6.16615   3.947273   2.821682 C.ar        1 UNL1     0.0305
     14 C         -4.918299   3.587946   3.49161 C.2        1 UNL1     0.0924
     15 N         -3.817708   3.177943   5.346313 N.pl3        1 UNL1     -0.3170
     16 C         -2.958096   2.88349   4.230688 C.3        1 UNL1     0.1275
     17 N         -3.874657   2.903583   3.031841 N.2        1 UNL1     -0.2557
     18 C         -2.01395   4.069992   4.061852 C.3        1 UNL1     0.0016
     19 C         -1.282262   4.299916   5.374618 C.3        1 UNL1     0.0026
     20 N         -0.547504   3.090459   5.71867 N.3        1 UNL1     -0.3018
     21 C         -1.363878   1.881098   5.842565 C.3        1 UNL1     0.0026
     22 C         -2.086215   1.666689   4.511342 C.3        1 UNL1     0.0016
     23 C         0.414053   3.298321   6.783022 C.3        1 UNL1     0.0012
     24 C         0.225462   2.250667   7.891449 C.3        1 UNL1     -0.0339
     25 C         0.851546   0.901347   7.502333 C.3        1 UNL1     -0.0615
     26 C         0.789693   2.771562   9.201828 C.3        1 UNL1     -0.0615
     27 C         -8.264627   5.230666   2.757741 C.ar        1 UNL1     0.1347
     28 C         -8.511439   4.918849   1.432635 C.ar        1 UNL1     0.0342
     29 C         -7.568819   4.043627   0.852449 C.ar        1 UNL1     0.1435
     30 C         -6.451903   3.569688   1.541725 C.ar        1 UNL1     0.0774
     31 O         -7.610045   3.734304   -0.461943 O.3        1 UNL1     -0.4436
     32 C         -6.291924   3.251432   -0.762386 C.3        1 UNL1     0.3143
     33 C         -5.730023   2.782063   0.564329 C.2        1 UNL1     0.2504
     34 C         -9.560265   5.549008   0.559156 C.3        1 UNL1     -0.0327
     35 O         -6.441731   2.088969   -1.586698 O.2        1 UNL1     -0.4528
     36 C         -3.361052   1.979776   -3.801552 C.3        1 UNL1     0.0854
     37 C         -1.839025   1.939598   -3.390037 C.3        1 UNL1     0.0236
     38 C         -1.004171   0.717191   -4.00687 C.3        1 UNL1     0.1131
     39 C         -1.554217   -0.759299   -3.866529 C.3        1 UNL1     0.0200
     40 C         -2.196087   -1.287903   -2.420493 C.3        1 UNL1     0.0661
     41 C         -1.470964   -1.130862   -0.894995 C.3        1 UNL1     0.0091
     42 C         -2.223478   -0.904811   0.762722 C.3        1 UNL1     0.0661
     43 C         -6.85328   5.266938   4.825212 C.2        1 UNL1     0.2131
     44 O         -7.359228   6.261469   5.312718 O.2        1 UNL1     -0.2851
     45 O         -9.18191   6.015585   3.453391 O.3        1 UNL1     -0.5056
     46 O         -4.891418   1.933242   0.76951 O.2        1 UNL1     -0.2836
     47 C         -4.18721   -2.406502   1.765965 C.3        1 UNL1     -0.0566
     48 O         -1.394887   -1.952226   1.407296 O.3        1 UNL1     -0.3909
     49 C         -0.326218   -0.147752   -0.997683 C.3        1 UNL1     -0.0577
     50 O         -3.570983   -0.971063   -2.336856 O.3        1 UNL1     -0.3910
     51 O         -3.83815   0.856757   -4.507695 O.3        1 UNL1     -0.3753
     52 C         -1.618807   2.441511   -1.925613 C.3        1 UNL1     -0.0564
     53 O         0.482651   0.889437   -3.897242 O.3        1 UNL1     -0.4608
     54 C         1.255576   0.475195   -2.84419 C.2        1 UNL1     0.3042
     55 O         1.06017   -0.492102   -2.109348 O.2        1 UNL1     -0.2512
     56 C         2.495692   1.299874   -2.647394 C.3        1 UNL1     0.0332
     57 C         -2.353781   -1.10562   -5.207772 C.3        1 UNL1     -0.0567
     58 C         -5.477406   4.474408   -1.244485 C.3        1 UNL1     0.0210
     59 C         -5.177741   0.477252   -4.195704 C.3        1 UNL1     0.0372
     60 C         -4.309831   2.21612   -2.679447 C.2        1 UNL1     -0.0208
     61 C         -5.462561   1.615378   -2.381005 C.2        1 UNL1     0.0882
     62 H         -4.215341   -0.308908   1.337446 H        1 UNL1     0.0365
     63 H         -5.198349   0.45064   2.958252 H        1 UNL1     0.0576
     64 H         -4.00024   -0.619143   5.588247 H        1 UNL1     0.0615
     65 H         -6.234265   1.473398   4.96514 H        1 UNL1     0.0622
     66 H         -3.446388   2.857067   -4.458152 H        1 UNL1     0.0645
     67 H         -1.394827   2.799099   -3.921549 H        1 UNL1     0.0362
     68 H         -1.087586   0.959104   -5.077403 H        1 UNL1     0.0741
     69 H         -0.739233   -1.451439   -4.031307 H        1 UNL1     0.0359
     70 H         -2.174065   -2.381374   -2.590478 H        1 UNL1     0.0600
     71 H         -0.925957   -2.09362   -0.840011 H        1 UNL1     0.0348
     72 H         -3.020886   -1.304766   0.119689 H        1 UNL1     0.0602
     73 H         -4.007878   3.081228   -2.143107 H        1 UNL1     0.0628
     74 H         -5.814737   0.692545   -2.84316 H        1 UNL1     0.1022
     75 H         -5.163902   2.682532   8.844149 H        1 UNL1     0.0279
     76 H         -6.18034   1.340485   9.189205 H        1 UNL1     0.0279
     77 H         -4.459211   1.128669   8.671373 H        1 UNL1     0.0279
     78 H         -4.991244   4.072342   7.252745 H        1 UNL1     0.1553
     79 H         -3.487976   3.208411   6.293562 H        1 UNL1     0.1484
     80 H         -1.313826   3.856392   3.245172 H        1 UNL1     0.0317
     81 H         -2.565753   4.97127   3.773992 H        1 UNL1     0.0317
     82 H         -1.973263   4.586184   6.181142 H        1 UNL1     0.0428
     83 H         -0.615881   5.151264   5.23251 H        1 UNL1     0.0428
     84 H         -0.779086   0.973639   6.022416 H        1 UNL1     0.0428
     85 H         -2.0453   1.934254   6.702887 H        1 UNL1     0.0428
     86 H         -2.565167   0.708591   4.592831 H        1 UNL1     0.0317
     87 H         -1.354636   1.517195   3.707887 H        1 UNL1     0.0317
     88 H         1.420962   3.18315   6.360927 H        1 UNL1     0.0429
     89 H         0.348842   4.317227   7.18595 H        1 UNL1     0.0429
     90 H         -0.846685   2.100898   8.065474 H        1 UNL1     0.0308
     91 H         1.328107   0.421268   8.362284 H        1 UNL1     0.0233
     92 H         0.095387   0.229254   7.089874 H        1 UNL1     0.0233
     93 H         1.622139   1.006037   6.728988 H        1 UNL1     0.0233
     94 H         1.884566   2.769768   9.168881 H        1 UNL1     0.0233
     95 H         0.459117   3.800647   9.36816 H        1 UNL1     0.0233
     96 H         0.468398   2.156602   10.047146 H        1 UNL1     0.0233
     97 H         -9.143287   5.928801   -0.368807 H        1 UNL1     0.0280
     98 H         -10.34036   4.833696   0.267547 H        1 UNL1     0.0280
     99 H         -10.031376   6.388884   1.095587 H        1 UNL1     0.0280
     100 H         -9.991859   5.582444   3.658319 H        1 UNL1     0.2922
     101 H         -3.748297   -3.087884   2.494477 H        1 UNL1     0.0236
     102 H         -4.053339   -2.758999   0.743807 H        1 UNL1     0.0236
     103 H         -5.27375   -2.468019   1.9444 H        1 UNL1     0.0236
     104 H         -1.652471   -2.811775   1.02026 H        1 UNL1     0.2098
     105 H         0.522283   -0.50521   -1.575682 H        1 UNL1     0.0234
     106 H         -0.612268   0.851675   -1.325172 H        1 UNL1     0.0234
     107 H         0.0   0.0   0.0 H        1 UNL1     0.0234
     108 H         -4.047554   -1.590351   -2.92263 H        1 UNL1     0.2098
     109 H         -2.560154   2.506934   -1.362321 H        1 UNL1     0.0234
     110 H         -0.898579   1.834659   -1.366377 H        1 UNL1     0.0234
     111 H         -1.188888   3.451791   -1.904382 H        1 UNL1     0.0234
     112 H         2.224359   2.306557   -2.31526 H        1 UNL1     0.0342
     113 H         3.19169   0.833309   -1.951874 H        1 UNL1     0.0342
     114 H         3.004657   1.390843   -3.61685 H        1 UNL1     0.0342
     115 H         -1.942549   -1.991404   -5.711224 H        1 UNL1     0.0234
     116 H         -3.420847   -1.279961   -5.056037 H        1 UNL1     0.0234
     117 H         -2.242283   -0.341444   -5.996153 H        1 UNL1     0.0234
     118 H         -4.987093   5.001987   -0.407669 H        1 UNL1     0.0309
     119 H         -4.72478   4.219624   -1.997374 H        1 UNL1     0.0309
     120 H         -6.108115   5.248052   -1.695913 H        1 UNL1     0.0309
     121 H         -5.84483   1.15335   -4.729784 H        1 UNL1     0.0524
     122 H         -5.409906   -0.548589   -4.527045 H        1 UNL1     0.0524
     123 H         -5.349237   0.549384   -3.125433 H        1 UNL1     0.0524
@<TRIPOS>BOND
     1     1     2    1
     2     1    42    1
     3     2     3    2
     4     3     4    1
     5     4     5    2
     6     5     7    1
     7     6    75    1
     8     6    76    1
     9     6    77    1
    10     7     9   am
    11     9    10    1
    12    10    11    2
    13    10    43    1
    14    11    14    1
    15    11    15    1
    16    12    13   ar
    17    12    27   ar
    18    12    43    1
    19    13    14    1
    20    13    30   ar
    21    14    17    2
    22    15    16    1
    23    16    17    1
    24    16    18    1
    25    16    22    1
    26    18    19    1
    27    19    20    1
    28    20    21    1
    29    21    22    1
    30    23    24    1
    31    23    88    1
    32    23    89    1
    33    24    25    1
    34    24    26    1
    35    24    90    1
    36    25    91    1
    37    25    92    1
    38    25    93    1
    39    26    94    1
    40    26    95    1
    41    26    96    1
    42    27    28   ar
    43    28    29   ar
    44    29    30   ar
    45    29    31    1
    46    30    33    1
    47    31    32    1
    48    32    33    1
    49    32    35    1
    50    34    97    1
    51    34    98    1
    52    34    99    1
    53    35    61    1
    54    36    37    1
    55    36    60    1
    56    37    38    1
    57    38    39    1
    58    39    40    1
    59    40    41    1
    60    41    42    1
    61    45   100    1
    62    47   101    1
    63    47   102    1
    64    47   103    1
    65    48   104    1
    66    49   105    1
    67    49   106    1
    68    49   107    1
    69    50   108    1
    70    51    59    1
    71    52   109    1
    72    52   110    1
    73    52   111    1
    74    53    54    1
    75    54    55    2
    76    54    56    1
    77    56   112    1
    78    56   113    1
    79    56   114    1
    80    57   115    1
    81    57   116    1
    82    57   117    1
    83    58   118    1
    84    58   119    1
    85    58   120    1
    86    59   121    1
    87    59   122    1
    88    59   123    1
    89    60    61    2
    90     1    47    1
    91     1    62    1
    92     2    63    1
    93     3    64    1
    94     4    65    1
    95     5     6    1
    96     7     8    2
    97     9    78    1
    98    15    79    1
    99    18    80    1
   100    18    81    1
   101    19    82    1
   102    19    83    1
   103    20    23    1
   104    21    84    1
   105    21    85    1
   106    22    86    1
   107    22    87    1
   108    27    45    1
   109    28    34    1
   110    32    58    1
   111    33    46    2
   112    36    51    1
   113    36    66    1
   114    37    52    1
   115    37    67    1
   116    38    53    1
   117    38    68    1
   118    42    48    1
   119    42    72    1
   120    43    44    2
   121    60    73    1
   122    61    74    1
   123    39    69    1
   124    39    57    1
   125    40    70    1
   126    40    50    1
   127    41    71    1
   128    41    49    1
