@<TRIPOS>MOLECULE
*****
 123 128 0 0 0
SMALL
GASTEIGER

@<TRIPOS>ATOM
     1 C         -1.322715   -5.150725   1.316134 C.3        1 UNL1     0.0009
     2 C         -2.31841   -6.240028   2.438207 C.2        1 UNL1     -0.0787
     3 C         -2.402241   -7.12022   3.584628 C.2        1 UNL1     -0.0649
     4 C         -3.789462   -7.808743   4.268669 C.2        1 UNL1     -0.0542
     5 C         -4.337129   -8.405418   5.431045 C.2        1 UNL1     0.0115
     6 C         -3.988273   -8.984424   6.82975 C.3        1 UNL1     -0.0348
     7 C         -5.933036   -8.484627   5.585298 C.2        1 UNL1     0.2441
     8 O         -6.571012   -9.508802   5.383856 O.2        1 UNL1     -0.2702
     9 N         -6.519428   -7.374611   6.217881 N.am        1 UNL1     -0.2772
     10 C         -6.820553   -6.39955   5.294895 C.2        1 UNL1     0.1049
     11 C         -5.829268   -5.597392   4.951208 C.2        1 UNL1     0.0801
     12 C         -7.931846   -6.037015   3.083351 C.ar        1 UNL1     0.0753
     13 C         -6.740659   -5.350336   2.685668 C.ar        1 UNL1     0.0305
     14 C         -5.703645   -4.994894   3.65175 C.2        1 UNL1     0.0924
     15 N         -4.616165   -5.436172   5.50701 N.pl3        1 UNL1     -0.3170
     16 C         -3.981976   -4.317807   4.861007 C.3        1 UNL1     0.1275
     17 N         -4.594466   -4.280828   3.482162 N.2        1 UNL1     -0.2557
     18 C         -4.460245   -3.054838   5.570845 C.3        1 UNL1     0.0016
     19 C         -4.148799   -3.182712   7.053491 C.3        1 UNL1     0.0026
     20 N         -2.712811   -3.363183   7.215957 N.3        1 UNL1     -0.3018
     21 C         -2.148516   -4.519616   6.516955 C.3        1 UNL1     0.0026
     22 C         -2.469094   -4.368149   5.028942 C.3        1 UNL1     0.0016
     23 C         -2.275101   -3.196505   8.587552 C.3        1 UNL1     0.0012
     24 C         -1.810327   -1.752362   8.83289 C.3        1 UNL1     -0.0339
     25 C         -2.640455   -1.073996   9.935054 C.3        1 UNL1     -0.0615
     26 C         -0.326705   -1.730744   9.157202 C.3        1 UNL1     -0.0615
     27 C         -8.968594   -6.265204   2.181573 C.ar        1 UNL1     0.1347
     28 C         -8.945662   -5.820603   0.871667 C.ar        1 UNL1     0.0342
     29 C         -7.742671   -5.190034   0.489099 C.ar        1 UNL1     0.1435
     30 C         -6.68113   -4.986506   1.371667 C.ar        1 UNL1     0.0774
     31 O         -7.607684   -4.60457   -0.720867 O.3        1 UNL1     -0.4436
     32 C         -6.502603   -3.7015   -0.565519 C.3        1 UNL1     0.3143
     33 C         -5.702613   -4.2509   0.598263 C.2        1 UNL1     0.2504
     34 C         -10.113402   -5.806005   -0.075049 C.3        1 UNL1     -0.0327
     35 O         -5.681518   -3.828273   -1.732996 O.2        1 UNL1     -0.4528
     36 C         -4.060088   -0.433644   -2.238509 C.3        1 UNL1     0.0854
     37 C         -3.156673   0.39649   -1.247428 C.3        1 UNL1     0.0236
     38 C         -1.727359   0.825802   -1.834367 C.3        1 UNL1     0.1131
     39 C         -0.793051   -0.26294   -2.500686 C.3        1 UNL1     0.0200
     40 C         -0.598338   -1.758944   -1.789001 C.3        1 UNL1     0.0661
     41 C         -0.213874   -2.042507   -0.161307 C.3        1 UNL1     0.0091
     42 C         -0.691231   -3.420555   0.951581 C.3        1 UNL1     0.0661
     43 C         -8.064581   -6.419388   4.511088 C.2        1 UNL1     0.2131
     44 O         -9.133023   -6.637591   5.052897 O.2        1 UNL1     -0.2851
     45 O         -10.073858   -6.981041   2.636993 O.3        1 UNL1     -0.5056
     46 O         -4.519548   -4.127854   0.824251 O.2        1 UNL1     -0.2836
     47 C         -0.449998   -6.011705   0.363738 C.3        1 UNL1     -0.0566
     48 O         0.684538   -3.636709   1.461143 O.3        1 UNL1     -0.3909
     49 C         -0.407567   -0.759916   0.61647 C.3        1 UNL1     -0.0577
     50 O         -1.613133   -2.649119   -2.207933 O.3        1 UNL1     -0.3910
     51 O         -3.443252   -0.843052   -3.43823 O.3        1 UNL1     -0.3753
     52 C         -3.341695   -0.066195   0.234678 C.3        1 UNL1     -0.0564
     53 O         -1.042672   1.890972   -1.028797 O.3        1 UNL1     -0.4608
     54 C         -0.379883   2.974404   -1.5434 C.2        1 UNL1     0.3042
     55 O         0.83674   3.125053   -1.648151 O.2        1 UNL1     -0.2512
     56 C         -1.29376   4.042246   -2.073734 C.3        1 UNL1     0.0332
     57 C         -1.047343   -0.215896   -4.07907 C.3        1 UNL1     -0.0567
     58 C         -7.106301   -2.337813   -0.156331 C.3        1 UNL1     0.0210
     59 C         -3.881902   -0.148754   -4.605021 C.3        1 UNL1     0.0372
     60 C         -4.694651   -1.64331   -1.64758 C.2        1 UNL1     -0.0208
     61 C         -4.808295   -2.882139   -2.128342 C.2        1 UNL1     0.0882
     62 H         -2.240873   -4.909666   0.766964 H        1 UNL1     0.0365
     63 H         -3.291374   -6.206724   1.943533 H        1 UNL1     0.0576
     64 H         -1.543316   -7.294459   4.236545 H        1 UNL1     0.0615
     65 H         -4.560577   -7.649641   3.510018 H        1 UNL1     0.0622
     66 H         -4.885723   0.24542   -2.493942 H        1 UNL1     0.0645
     67 H         -3.666195   1.373013   -1.174286 H        1 UNL1     0.0362
     68 H         -2.055247   1.474302   -2.661082 H        1 UNL1     0.0741
     69 H         0.218845   0.118547   -2.531381 H        1 UNL1     0.0359
     70 H         0.309572   -2.105435   -2.318815 H        1 UNL1     0.0600
     71 H         0.890687   -2.090499   -0.229127 H        1 UNL1     0.0348
     72 H         -0.847007   -3.789886   -0.072452 H        1 UNL1     0.0602
     73 H         -5.206547   -1.370137   -0.75843 H        1 UNL1     0.0628
     74 H         -4.270509   -3.257163   -2.999767 H        1 UNL1     0.1022
     75 H         -3.427984   -9.945002   6.727764 H        1 UNL1     0.0279
     76 H         -3.321194   -8.388718   7.448789 H        1 UNL1     0.0279
     77 H         -4.877518   -9.310439   7.388909 H        1 UNL1     0.0279
     78 H         -5.862156   -6.973659   6.883694 H        1 UNL1     0.1553
     79 H         -4.388158   -5.725881   6.440291 H        1 UNL1     0.1484
     80 H         -3.95856   -2.185056   5.129759 H        1 UNL1     0.0317
     81 H         -5.535062   -2.905555   5.422072 H        1 UNL1     0.0317
     82 H         -4.706607   -4.009806   7.516826 H        1 UNL1     0.0428
     83 H         -4.499656   -2.27248   7.540756 H        1 UNL1     0.0428
     84 H         -1.05854   -4.586912   6.589303 H        1 UNL1     0.0428
     85 H         -2.503274   -5.468102   6.943379 H        1 UNL1     0.0428
     86 H         -1.930804   -5.155801   4.535144 H        1 UNL1     0.0317
     87 H         -2.002341   -3.456663   4.635964 H        1 UNL1     0.0317
     88 H         -3.128213   -3.40574   9.246123 H        1 UNL1     0.0429
     89 H         -1.486477   -3.91537   8.844608 H        1 UNL1     0.0429
     90 H         -1.922862   -1.176552   7.906612 H        1 UNL1     0.0308
     91 H         -2.996492   -1.802204   10.669937 H        1 UNL1     0.0233
     92 H         -2.052207   -0.307749   10.445386 H        1 UNL1     0.0233
     93 H         -3.526398   -0.564673   9.536897 H        1 UNL1     0.0233
     94 H         0.254809   -1.524806   8.252068 H        1 UNL1     0.0233
     95 H         -0.114114   -0.939661   9.881739 H        1 UNL1     0.0233
     96 H         0.005262   -2.687015   9.571102 H        1 UNL1     0.0233
     97 H         -10.332317   -4.805721   -0.436627 H        1 UNL1     0.0280
     98 H         -9.928629   -6.41515   -0.969508 H        1 UNL1     0.0280
     99 H         -11.009443   -6.191723   0.438204 H        1 UNL1     0.0280
     100 H         -9.864235   -7.780779   3.086549 H        1 UNL1     0.2922
     101 H         -0.887276   -6.013665   -0.634481 H        1 UNL1     0.0236
     102 H         -0.276483   -7.020733   0.736215 H        1 UNL1     0.0236
     103 H         0.557872   -5.585472   0.226927 H        1 UNL1     0.0236
     104 H         1.060689   -4.399758   0.980272 H        1 UNL1     0.2098
     105 H         -1.446232   -0.506854   0.813818 H        1 UNL1     0.0234
     106 H         0.178937   -0.689831   1.532455 H        1 UNL1     0.0234
     107 H         0.0   0.0   0.0 H        1 UNL1     0.0234
     108 H         -1.593247   -3.41652   -1.604221 H        1 UNL1     0.2098
     109 H         -4.375915   0.060587   0.584004 H        1 UNL1     0.0234
     110 H         -3.021057   -1.099395   0.406231 H        1 UNL1     0.0234
     111 H         -2.721137   0.522889   0.923034 H        1 UNL1     0.0234
     112 H         -0.703476   4.865641   -2.487171 H        1 UNL1     0.0342
     113 H         -1.992811   3.653209   -2.812531 H        1 UNL1     0.0342
     114 H         -1.882316   4.437971   -1.234587 H        1 UNL1     0.0342
     115 H         -0.135795   -0.448403   -4.646706 H        1 UNL1     0.0234
     116 H         -1.8304   -0.894558   -4.423001 H        1 UNL1     0.0234
     117 H         -1.281888   0.794118   -4.456959 H        1 UNL1     0.0234
     118 H         -7.012403   -1.585299   -0.958773 H        1 UNL1     0.0309
     119 H         -8.155167   -2.40661   0.149198 H        1 UNL1     0.0309
     120 H         -6.575107   -1.878214   0.684329 H        1 UNL1     0.0309
     121 H         -3.543867   0.883725   -4.520899 H        1 UNL1     0.0524
     122 H         -3.447154   -0.566203   -5.528476 H        1 UNL1     0.0524
     123 H         -4.965193   -0.183712   -4.67818 H        1 UNL1     0.0524
@<TRIPOS>BOND
     1     1     2    1
     2     1    42    1
     3     2     3    2
     4     3     4    1
     5     4     5    2
     6     5     7    1
     7     6    75    1
     8     6    76    1
     9     6    77    1
    10     7     9   am
    11     9    10    1
    12    10    11    2
    13    10    43    1
    14    11    14    1
    15    11    15    1
    16    12    13   ar
    17    12    27   ar
    18    12    43    1
    19    13    14    1
    20    13    30   ar
    21    14    17    2
    22    15    16    1
    23    16    17    1
    24    16    18    1
    25    16    22    1
    26    18    19    1
    27    19    20    1
    28    20    21    1
    29    21    22    1
    30    23    24    1
    31    23    88    1
    32    23    89    1
    33    24    25    1
    34    24    26    1
    35    24    90    1
    36    25    91    1
    37    25    92    1
    38    25    93    1
    39    26    94    1
    40    26    95    1
    41    26    96    1
    42    27    28   ar
    43    28    29   ar
    44    29    30   ar
    45    29    31    1
    46    30    33    1
    47    31    32    1
    48    32    33    1
    49    32    35    1
    50    34    97    1
    51    34    98    1
    52    34    99    1
    53    35    61    1
    54    36    37    1
    55    36    60    1
    56    37    38    1
    57    38    39    1
    58    39    40    1
    59    40    41    1
    60    41    42    1
    61    45   100    1
    62    47   101    1
    63    47   102    1
    64    47   103    1
    65    48   104    1
    66    49   105    1
    67    49   106    1
    68    49   107    1
    69    50   108    1
    70    51    59    1
    71    52   109    1
    72    52   110    1
    73    52   111    1
    74    53    54    1
    75    54    55    2
    76    54    56    1
    77    56   112    1
    78    56   113    1
    79    56   114    1
    80    57   115    1
    81    57   116    1
    82    57   117    1
    83    58   118    1
    84    58   119    1
    85    58   120    1
    86    59   121    1
    87    59   122    1
    88    59   123    1
    89    60    61    2
    90     1    47    1
    91     1    62    1
    92     2    63    1
    93     3    64    1
    94     4    65    1
    95     5     6    1
    96     7     8    2
    97     9    78    1
    98    15    79    1
    99    18    80    1
   100    18    81    1
   101    19    82    1
   102    19    83    1
   103    20    23    1
   104    21    84    1
   105    21    85    1
   106    22    86    1
   107    22    87    1
   108    27    45    1
   109    28    34    1
   110    32    58    1
   111    33    46    2
   112    36    51    1
   113    36    66    1
   114    37    52    1
   115    37    67    1
   116    38    53    1
   117    38    68    1
   118    42    48    1
   119    42    72    1
   120    43    44    2
   121    60    73    1
   122    61    74    1
   123    39    69    1
   124    39    57    1
   125    40    70    1
   126    40    50    1
   127    41    71    1
   128    41    49    1
