@<TRIPOS>MOLECULE
*****
 123 128 0 0 0
SMALL
GASTEIGER

@<TRIPOS>ATOM
     1 C         5.172256   1.736643   0.480739 C.3        1 UNL1     0.0009
     2 C         6.609263   2.538917   -0.372727 C.2        1 UNL1     -0.0787
     3 C         7.889645   2.437353   -1.040823 C.2        1 UNL1     -0.0649
     4 C         8.76862   3.670023   -1.798639 C.2        1 UNL1     -0.0542
     5 C         9.787572   3.959791   -2.739303 C.2        1 UNL1     0.0115
     6 C         10.912636   3.331247   -3.606763 C.3        1 UNL1     -0.0348
     7 C         9.885317   5.442534   -3.346681 C.2        1 UNL1     0.2441
     8 O         10.711875   6.262382   -2.970945 O.2        1 UNL1     -0.2702
     9 N         9.133386   5.650755   -4.516039 N.am        1 UNL1     -0.2772
     10 C         7.852194   6.040651   -4.200048 C.2        1 UNL1     0.1049
     11 C         7.004638   5.071401   -3.906066 C.2        1 UNL1     0.0801
     12 C         6.560314   7.65106   -2.787617 C.ar        1 UNL1     0.0753
     13 C         5.799404   6.525172   -2.33817 C.ar        1 UNL1     0.0305
     14 C         5.911993   5.218896   -2.983165 C.2        1 UNL1     0.0924
     15 N         7.123777   3.742059   -4.064764 N.pl3        1 UNL1     -0.3170
     16 C         5.853082   3.146077   -3.747915 C.3        1 UNL1     0.1275
     17 N         5.220819   4.103287   -2.767243 N.2        1 UNL1     -0.2557
     18 C         4.997996   3.206604   -5.010003 C.3        1 UNL1     0.0016
     19 C         5.749108   2.520183   -6.139714 C.3        1 UNL1     0.0026
     20 N         6.016678   1.141617   -5.75372 N.3        1 UNL1     -0.3018
     21 C         6.781985   0.979971   -4.51576 C.3        1 UNL1     0.0026
     22 C         6.00701   1.672873   -3.393622 C.3        1 UNL1     0.0016
     23 C         6.457129   0.320503   -6.863863 C.3        1 UNL1     0.0012
     24 C         5.29924   0.073339   -7.843638 C.3        1 UNL1     -0.0339
     25 C         5.324998   1.075912   -9.009074 C.3        1 UNL1     -0.0615
     26 C         5.334263   -1.361689   -8.339874 C.3        1 UNL1     -0.0615
     27 C         6.359706   8.91949   -2.248212 C.ar        1 UNL1     0.1347
     28 C         5.403109   9.19178   -1.286531 C.ar        1 UNL1     0.0342
     29 C         4.699704   8.059228   -0.824244 C.ar        1 UNL1     0.1435
     30 C         4.915123   6.776444   -1.329495 C.ar        1 UNL1     0.0774
     31 O         3.6606   8.175684   0.031156 O.3        1 UNL1     -0.4436
     32 C         2.935706   6.94453   -0.109061 C.3        1 UNL1     0.3143
     33 C         3.945617   5.948753   -0.642654 C.2        1 UNL1     0.2504
     34 C         4.960374   10.559156   -0.845657 C.3        1 UNL1     -0.0327
     35 O         2.576514   6.509311   1.208063 O.2        1 UNL1     -0.4528
     36 C         -0.671892   4.58471   0.818374 C.3        1 UNL1     0.0854
     37 C         -0.981912   3.324439   -0.0778 C.3        1 UNL1     0.0236
     38 C         -1.583992   2.065208   0.711871 C.3        1 UNL1     0.1131
     39 C         -0.857045   1.53315   2.012152 C.3        1 UNL1     0.0200
     40 C         0.803869   1.383646   2.050246 C.3        1 UNL1     0.0661
     41 C         1.75918   0.61197   0.879987 C.3        1 UNL1     0.0091
     42 C         3.466559   0.97017   0.312579 C.3        1 UNL1     0.0661
     43 C         7.507731   7.440553   -3.910269 C.2        1 UNL1     0.2131
     44 O         7.908402   8.337331   -4.629984 O.2        1 UNL1     -0.2851
     45 O         7.173579   9.952432   -2.708733 O.3        1 UNL1     -0.5056
     46 O         3.958972   4.745245   -0.511331 O.2        1 UNL1     -0.2836
     47 C         5.570314   1.306901   1.918395 C.3        1 UNL1     -0.0566
     48 O         3.911897   -0.441967   0.394193 O.3        1 UNL1     -0.3909
     49 C         0.922089   0.380789   -0.358289 C.3        1 UNL1     -0.0577
     50 O         1.407726   2.600254   2.441328 O.3        1 UNL1     -0.3910
     51 O         -0.793796   4.395997   2.210121 O.3        1 UNL1     -0.3753
     52 C         0.059969   3.160916   -1.232224 C.3        1 UNL1     -0.0564
     53 O         -2.190787   1.027241   -0.186323 O.3        1 UNL1     -0.4608
     54 C         -2.415205   -0.282156   0.149899 C.2        1 UNL1     0.3042
     55 O         -1.846028   -1.276513   -0.298576 O.2        1 UNL1     -0.2512
     56 C         -3.442818   -0.457699   1.231523 C.3        1 UNL1     0.0332
     57 C         -1.574074   2.204473   3.274439 C.3        1 UNL1     -0.0567
     58 C         1.859046   7.191677   -1.191304 C.3        1 UNL1     0.0210
     59 C         -1.133706   5.56981   2.94666 C.3        1 UNL1     0.0372
     60 C         0.658167   5.210496   0.584933 C.2        1 UNL1     -0.0208
     61 C         1.573792   5.643957   1.452394 C.2        1 UNL1     0.0882
     62 H         4.698862   2.721996   0.568432 H        1 UNL1     0.0365
     63 H         6.345742   3.593402   -0.26743 H        1 UNL1     0.0576
     64 H         8.34456   1.469303   -1.262269 H        1 UNL1     0.0615
     65 H         8.284393   4.586752   -1.451342 H        1 UNL1     0.0622
     66 H         -1.415339   5.332872   0.509203 H        1 UNL1     0.0645
     67 H         -1.847876   3.635584   -0.687598 H        1 UNL1     0.0362
     68 H         -2.529342   2.504523   1.065194 H        1 UNL1     0.0741
     69 H         -1.190619   0.522944   2.208676 H        1 UNL1     0.0359
     70 H         0.915737   0.723476   2.931564 H        1 UNL1     0.0600
     71 H         1.801126   -0.409091   1.307344 H        1 UNL1     0.0348
     72 H         3.363712   1.459102   1.292214 H        1 UNL1     0.0602
     73 H         0.774563   5.40696   -0.451938 H        1 UNL1     0.0628
     74 H         1.557776   5.433854   2.522365 H        1 UNL1     0.1022
     75 H         10.954758   2.225939   -3.45329 H        1 UNL1     0.0279
     76 H         10.79715   3.413785   -4.68515 H        1 UNL1     0.0279
     77 H         11.919059   3.633698   -3.282205 H        1 UNL1     0.0279
     78 H         9.068301   4.780702   -5.0403 H        1 UNL1     0.1553
     79 H         7.786843   3.312174   -4.68321 H        1 UNL1     0.1484
     80 H         4.035912   2.718072   -4.813799 H        1 UNL1     0.0317
     81 H         4.773359   4.243766   -5.281084 H        1 UNL1     0.0317
     82 H         6.680569   3.04913   -6.389732 H        1 UNL1     0.0428
     83 H         5.122393   2.576392   -7.030286 H        1 UNL1     0.0428
     84 H         6.900392   -0.063116   -4.206307 H        1 UNL1     0.0428
     85 H         7.812757   1.34548   -4.621719 H        1 UNL1     0.0428
     86 H         6.524559   1.421714   -2.486401 H        1 UNL1     0.0317
     87 H         5.026662   1.197649   -3.266433 H        1 UNL1     0.0317
     88 H         7.253483   0.860131   -7.392934 H        1 UNL1     0.0429
     89 H         6.888122   -0.626133   -6.513295 H        1 UNL1     0.0429
     90 H         4.347652   0.182593   -7.310012 H        1 UNL1     0.0308
     91 H         6.273967   1.030641   -9.551763 H        1 UNL1     0.0233
     92 H         4.504772   0.881495   -9.704085 H        1 UNL1     0.0233
     93 H         5.200689   2.111978   -8.671508 H        1 UNL1     0.0233
     94 H         4.636084   -1.490005   -9.174091 H        1 UNL1     0.0233
     95 H         6.337364   -1.608547   -8.698777 H        1 UNL1     0.0233
     96 H         5.059712   -2.064479   -7.548245 H        1 UNL1     0.0233
     97 H         4.168329   10.511643   -0.104282 H        1 UNL1     0.0280
     98 H         5.775382   11.127479   -0.378721 H        1 UNL1     0.0280
     99 H         4.586394   11.124157   -1.715144 H        1 UNL1     0.0280
     100 H         6.707729   10.70374   -3.031445 H        1 UNL1     0.2922
     101 H         4.707428   0.87558   2.425392 H        1 UNL1     0.0236
     102 H         6.024126   2.111448   2.496099 H        1 UNL1     0.0236
     103 H         6.324634   0.50242   1.916253 H        1 UNL1     0.0236
     104 H         4.332791   -0.568531   1.267004 H        1 UNL1     0.2098
     105 H         0.710504   1.279844   -0.93165 H        1 UNL1     0.0234
     106 H         1.288337   -0.40844   -1.014725 H        1 UNL1     0.0234
     107 H         0.0   -0.0   0.0 H        1 UNL1     0.0234
     108 H         1.209432   3.258637   1.747801 H        1 UNL1     0.2098
     109 H         1.085252   3.045173   -0.853925 H        1 UNL1     0.0234
     110 H         -0.175749   2.33404   -1.910793 H        1 UNL1     0.0234
     111 H         0.08203   4.043354   -1.885495 H        1 UNL1     0.0234
     112 H         -3.56998   -1.5213   1.454971 H        1 UNL1     0.0342
     113 H         -3.191118   0.103022   2.130457 H        1 UNL1     0.0342
     114 H         -4.402658   -0.074886   0.858258 H        1 UNL1     0.0342
     115 H         -2.638775   1.938622   3.328517 H        1 UNL1     0.0234
     116 H         -1.121329   1.943323   4.233017 H        1 UNL1     0.0234
     117 H         -1.632022   3.30488   3.213702 H        1 UNL1     0.0234
     118 H         0.959929   7.680944   -0.777527 H        1 UNL1     0.0309
     119 H         2.228208   7.778355   -2.038495 H        1 UNL1     0.0309
     120 H         1.467435   6.260441   -1.615033 H        1 UNL1     0.0309
     121 H         -0.328008   6.290371   2.808823 H        1 UNL1     0.0524
     122 H         -2.063444   6.037704   2.582381 H        1 UNL1     0.0524
     123 H         -1.247952   5.332315   4.000528 H        1 UNL1     0.0524
@<TRIPOS>BOND
     1     1     2    1
     2     1    42    1
     3     2     3    2
     4     3     4    1
     5     4     5    2
     6     5     7    1
     7     6    75    1
     8     6    76    1
     9     6    77    1
    10     7     9   am
    11     9    10    1
    12    10    11    2
    13    10    43    1
    14    11    14    1
    15    11    15    1
    16    12    13   ar
    17    12    27   ar
    18    12    43    1
    19    13    14    1
    20    13    30   ar
    21    14    17    2
    22    15    16    1
    23    16    17    1
    24    16    18    1
    25    16    22    1
    26    18    19    1
    27    19    20    1
    28    20    21    1
    29    21    22    1
    30    23    24    1
    31    23    88    1
    32    23    89    1
    33    24    25    1
    34    24    26    1
    35    24    90    1
    36    25    91    1
    37    25    92    1
    38    25    93    1
    39    26    94    1
    40    26    95    1
    41    26    96    1
    42    27    28   ar
    43    28    29   ar
    44    29    30   ar
    45    29    31    1
    46    30    33    1
    47    31    32    1
    48    32    33    1
    49    32    35    1
    50    34    97    1
    51    34    98    1
    52    34    99    1
    53    35    61    1
    54    36    37    1
    55    36    60    1
    56    37    38    1
    57    38    39    1
    58    39    40    1
    59    40    41    1
    60    41    42    1
    61    45   100    1
    62    47   101    1
    63    47   102    1
    64    47   103    1
    65    48   104    1
    66    49   105    1
    67    49   106    1
    68    49   107    1
    69    50   108    1
    70    51    59    1
    71    52   109    1
    72    52   110    1
    73    52   111    1
    74    53    54    1
    75    54    55    2
    76    54    56    1
    77    56   112    1
    78    56   113    1
    79    56   114    1
    80    57   115    1
    81    57   116    1
    82    57   117    1
    83    58   118    1
    84    58   119    1
    85    58   120    1
    86    59   121    1
    87    59   122    1
    88    59   123    1
    89    60    61    2
    90     1    47    1
    91     1    62    1
    92     2    63    1
    93     3    64    1
    94     4    65    1
    95     5     6    1
    96     7     8    2
    97     9    78    1
    98    15    79    1
    99    18    80    1
   100    18    81    1
   101    19    82    1
   102    19    83    1
   103    20    23    1
   104    21    84    1
   105    21    85    1
   106    22    86    1
   107    22    87    1
   108    27    45    1
   109    28    34    1
   110    32    58    1
   111    33    46    2
   112    36    51    1
   113    36    66    1
   114    37    52    1
   115    37    67    1
   116    38    53    1
   117    38    68    1
   118    42    48    1
   119    42    72    1
   120    43    44    2
   121    60    73    1
   122    61    74    1
   123    39    69    1
   124    39    57    1
   125    40    70    1
   126    40    50    1
   127    41    71    1
   128    41    49    1
