@<TRIPOS>MOLECULE
*****
 123 128 0 0 0
SMALL
GASTEIGER

@<TRIPOS>ATOM
     1 C         -4.097305   -1.766551   3.14051 C.3        1 UNL1     0.0009
     2 C         -5.524435   -1.241695   4.201106 C.2        1 UNL1     -0.0787
     3 C         -6.121411   -1.071109   5.508992 C.2        1 UNL1     -0.0649
     4 C         -7.600956   -0.341854   5.890424 C.2        1 UNL1     -0.0542
     5 C         -8.366625   0.262921   6.917593 C.2        1 UNL1     0.0115
     6 C         -8.430995   0.527396   8.447048 C.3        1 UNL1     -0.0348
     7 C         -9.6273   1.171325   6.514493 C.2        1 UNL1     0.2441
     8 O         -10.782988   0.777729   6.591899 O.2        1 UNL1     -0.2702
     9 N         -9.33363   2.531682   6.316153 N.am        1 UNL1     -0.2772
     10 C         -8.960841   2.757136   5.010963 C.2        1 UNL1     0.1049
     11 C         -7.697884   2.508788   4.715186 C.2        1 UNL1     0.0801
     12 C         -9.643287   2.306251   2.647004 C.ar        1 UNL1     0.0753
     13 C         -8.304807   1.847679   2.430691 C.ar        1 UNL1     0.0305
     14 C         -7.25403   2.057928   3.424025 C.2        1 UNL1     0.0924
     15 N         -6.652297   2.268193   5.524747 N.pl3        1 UNL1     -0.3170
     16 C         -5.465957   2.232286   4.711382 C.3        1 UNL1     0.1275
     17 N         -5.952801   1.792245   3.352312 N.2        1 UNL1     -0.2557
     18 C         -4.988388   3.671657   4.544528 C.3        1 UNL1     0.0016
     19 C         -4.786148   4.279866   5.923213 C.3        1 UNL1     0.0026
     20 N         -3.80516   3.48288   6.646749 N.3        1 UNL1     -0.3018
     21 C         -4.14788   2.067923   6.804256 C.3        1 UNL1     0.0026
     22 C         -4.341954   1.475962   5.407183 C.3        1 UNL1     0.0016
     23 C         -3.319568   4.137892   7.844999 C.3        1 UNL1     0.0012
     24 C         -4.273916   3.883378   9.022368 C.3        1 UNL1     -0.0339
     25 C         -4.463715   5.148062   9.875953 C.3        1 UNL1     -0.0615
     26 C         -5.6008   3.349638   8.511211 C.3        1 UNL1     -0.0615
     27 C         -10.609309   2.21052   1.648127 C.ar        1 UNL1     0.1347
     28 C         -10.346259   1.713226   0.384183 C.ar        1 UNL1     0.0342
     29 C         -9.034668   1.22276   0.21001 C.ar        1 UNL1     0.1435
     30 C         -8.066384   1.278896   1.213253 C.ar        1 UNL1     0.0774
     31 O         -8.591823   0.808062   -0.99702 O.3        1 UNL1     -0.4436
     32 C         -7.160683   0.84729   -0.89132 C.3        1 UNL1     0.3143
     33 C         -6.870217   0.748983   0.592654 C.2        1 UNL1     0.2504
     34 C         -11.256078   1.810763   -0.808635 C.3        1 UNL1     -0.0327
     35 O         -6.655955   -0.350018   -1.495434 O.2        1 UNL1     -0.4528
     36 C         -3.238741   0.545748   -2.884081 C.3        1 UNL1     0.0854
     37 C         -1.981191   1.132377   -2.134442 C.3        1 UNL1     0.0236
     38 C         -0.634444   0.278277   -2.303343 C.3        1 UNL1     0.1131
     39 C         -0.650687   -1.277737   -2.019044 C.3        1 UNL1     0.0200
     40 C         -1.448896   -1.884766   -0.686071 C.3        1 UNL1     0.0661
     41 C         -1.28728   -1.327456   0.907948 C.3        1 UNL1     0.0091
     42 C         -2.507414   -1.265702   2.276474 C.3        1 UNL1     0.0661
     43 C         -9.945738   2.969159   3.939806 C.2        1 UNL1     0.2131
     44 O         -10.88255   3.729686   4.103261 O.2        1 UNL1     -0.2851
     45 O         -11.89943   2.637918   1.955303 O.3        1 UNL1     -0.5056
     46 O         -5.882931   0.311152   1.13985 O.2        1 UNL1     -0.2836
     47 C         -4.022101   -3.315325   3.065514 C.3        1 UNL1     -0.0566
     48 O         -1.584107   -1.851423   3.278248 O.3        1 UNL1     -0.3909
     49 C         -0.578251   0.008354   0.888355 C.3        1 UNL1     -0.0577
     50 O         -2.811534   -2.117308   -0.980798 O.3        1 UNL1     -0.3910
     51 O         -3.073633   -0.731381   -3.457764 O.3        1 UNL1     -0.3753
     52 C         -2.373709   1.806135   -0.779109 C.3        1 UNL1     -0.0564
     53 O         0.602963   1.020041   -1.889899 O.3        1 UNL1     -0.4608
     54 C         1.890058   0.603288   -2.108148 C.2        1 UNL1     0.3042
     55 O         2.499884   -0.282355   -1.510161 O.2        1 UNL1     -0.2512
     56 C         2.562968   1.304024   -3.253956 C.3        1 UNL1     0.0332
     57 C         -0.864927   -2.021526   -3.418706 C.3        1 UNL1     -0.0567
     58 C         -6.723044   2.24277   -1.39395 C.3        1 UNL1     0.0210
     59 C         -1.975057   -0.845213   -4.361113 C.3        1 UNL1     0.0372
     60 C         -4.48632   0.494434   -2.074097 C.2        1 UNL1     -0.0208
     61 C         -5.391206   -0.476232   -1.940932 C.2        1 UNL1     0.0882
     62 H         -4.657555   -1.437301   2.257093 H        1 UNL1     0.0365
     63 H         -6.259252   -0.977829   3.437635 H        1 UNL1     0.0576
     64 H         -5.559596   -1.268143   6.424769 H        1 UNL1     0.0615
     65 H         -8.10923   -0.263372   4.92555 H        1 UNL1     0.0622
     66 H         -3.435211   1.261138   -3.695045 H        1 UNL1     0.0645
     67 H         -1.733696   2.046785   -2.701157 H        1 UNL1     0.0362
     68 H         -0.490519   0.374793   -3.390308 H        1 UNL1     0.0741
     69 H         0.365502   -1.613092   -1.859971 H        1 UNL1     0.0359
     70 H         -0.999788   -2.895269   -0.638695 H        1 UNL1     0.0600
     71 H         -0.480104   -1.996376   1.265676 H        1 UNL1     0.0348
     72 H         -2.898526   -1.996973   1.554261 H        1 UNL1     0.0602
     73 H         -4.669943   1.452277   -1.654492 H        1 UNL1     0.0628
     74 H         -5.253311   -1.5   -2.290389 H        1 UNL1     0.1022
     75 H         -8.706113   -0.405908   8.995033 H        1 UNL1     0.0279
     76 H         -7.499685   0.816172   8.929065 H        1 UNL1     0.0279
     77 H         -9.257801   1.195838   8.728611 H        1 UNL1     0.0279
     78 H         -8.552058   2.802877   6.909176 H        1 UNL1     0.1553
     79 H         -6.636254   2.50615   6.499453 H        1 UNL1     0.1484
     80 H         -4.057312   3.674518   3.964997 H        1 UNL1     0.0317
     81 H         -5.714321   4.26117   3.974312 H        1 UNL1     0.0317
     82 H         -5.731542   4.346374   6.481531 H        1 UNL1     0.0428
     83 H         -4.447439   5.306551   5.780928 H        1 UNL1     0.0428
     84 H         -3.359762   1.476043   7.280028 H        1 UNL1     0.0428
     85 H         -5.018636   1.928751   7.459796 H        1 UNL1     0.0428
     86 H         -4.458817   0.418314   5.554531 H        1 UNL1     0.0317
     87 H         -3.408872   1.550991   4.835498 H        1 UNL1     0.0317
     88 H         -2.338011   3.712995   8.092592 H        1 UNL1     0.0429
     89 H         -3.172261   5.212987   7.679938 H        1 UNL1     0.0429
     90 H         -3.857689   3.092556   9.657637 H        1 UNL1     0.0308
     91 H         -4.419738   6.052603   9.261971 H        1 UNL1     0.0233
     92 H         -5.420287   5.118466   10.402928 H        1 UNL1     0.0233
     93 H         -3.692011   5.25016   10.648536 H        1 UNL1     0.0233
     94 H         -6.32724   3.297256   9.329366 H        1 UNL1     0.0233
     95 H         -6.002906   4.019175   7.745709 H        1 UNL1     0.0233
     96 H         -5.490217   2.349574   8.082713 H        1 UNL1     0.0233
     97 H         -10.967937   1.123135   -1.598174 H        1 UNL1     0.0280
     98 H         -12.295468   1.561781   -0.557772 H        1 UNL1     0.0280
     99 H         -11.224445   2.835305   -1.214109 H        1 UNL1     0.0280
     100 H         -12.464547   1.965579   2.293276 H        1 UNL1     0.2922
     101 H         -3.071077   -3.657414   3.47317 H        1 UNL1     0.0236
     102 H         -4.201787   -3.705215   2.064174 H        1 UNL1     0.0236
     103 H         -4.78693   -3.798122   3.696495 H        1 UNL1     0.0236
     104 H         -1.568913   -2.818075   3.135682 H        1 UNL1     0.2098
     105 H         -1.24178   0.868408   0.845363 H        1 UNL1     0.0234
     106 H         0.162955   0.142071   1.676175 H        1 UNL1     0.0234
     107 H         0.0   0.0   0.0 H        1 UNL1     0.0234
     108 H         -2.851567   -2.518731   -1.870194 H        1 UNL1     0.2098
     109 H         -1.595727   1.683121   -0.012739 H        1 UNL1     0.0234
     110 H         -2.621764   2.868006   -0.882278 H        1 UNL1     0.0234
     111 H         -3.282866   1.360476   -0.35394 H        1 UNL1     0.0234
     112 H         2.294865   2.364899   -3.250537 H        1 UNL1     0.0342
     113 H         3.644004   1.17417   -3.235436 H        1 UNL1     0.0342
     114 H         2.191046   0.865684   -4.190276 H        1 UNL1     0.0342
     115 H         -1.217594   -3.053243   -3.283155 H        1 UNL1     0.0234
     116 H         -1.568477   -1.518943   -4.085396 H        1 UNL1     0.0234
     117 H         0.072744   -2.188368   -3.97627 H        1 UNL1     0.0234
     118 H         -7.559343   2.963605   -1.396425 H        1 UNL1     0.0309
     119 H         -5.889461   2.663273   -0.822533 H        1 UNL1     0.0309
     120 H         -6.397682   2.229816   -2.439932 H        1 UNL1     0.0309
     121 H         -2.170475   -0.181737   -5.203115 H        1 UNL1     0.0524
     122 H         -1.022734   -0.529303   -3.903598 H        1 UNL1     0.0524
     123 H         -1.877239   -1.870472   -4.706611 H        1 UNL1     0.0524
@<TRIPOS>BOND
     1     1     2    1
     2     1    42    1
     3     2     3    2
     4     3     4    1
     5     4     5    2
     6     5     7    1
     7     6    75    1
     8     6    76    1
     9     6    77    1
    10     7     9   am
    11     9    10    1
    12    10    11    2
    13    10    43    1
    14    11    14    1
    15    11    15    1
    16    12    13   ar
    17    12    27   ar
    18    12    43    1
    19    13    14    1
    20    13    30   ar
    21    14    17    2
    22    15    16    1
    23    16    17    1
    24    16    18    1
    25    16    22    1
    26    18    19    1
    27    19    20    1
    28    20    21    1
    29    21    22    1
    30    23    24    1
    31    23    88    1
    32    23    89    1
    33    24    25    1
    34    24    26    1
    35    24    90    1
    36    25    91    1
    37    25    92    1
    38    25    93    1
    39    26    94    1
    40    26    95    1
    41    26    96    1
    42    27    28   ar
    43    28    29   ar
    44    29    30   ar
    45    29    31    1
    46    30    33    1
    47    31    32    1
    48    32    33    1
    49    32    35    1
    50    34    97    1
    51    34    98    1
    52    34    99    1
    53    35    61    1
    54    36    37    1
    55    36    60    1
    56    37    38    1
    57    38    39    1
    58    39    40    1
    59    40    41    1
    60    41    42    1
    61    45   100    1
    62    47   101    1
    63    47   102    1
    64    47   103    1
    65    48   104    1
    66    49   105    1
    67    49   106    1
    68    49   107    1
    69    50   108    1
    70    51    59    1
    71    52   109    1
    72    52   110    1
    73    52   111    1
    74    53    54    1
    75    54    55    2
    76    54    56    1
    77    56   112    1
    78    56   113    1
    79    56   114    1
    80    57   115    1
    81    57   116    1
    82    57   117    1
    83    58   118    1
    84    58   119    1
    85    58   120    1
    86    59   121    1
    87    59   122    1
    88    59   123    1
    89    60    61    2
    90     1    47    1
    91     1    62    1
    92     2    63    1
    93     3    64    1
    94     4    65    1
    95     5     6    1
    96     7     8    2
    97     9    78    1
    98    15    79    1
    99    18    80    1
   100    18    81    1
   101    19    82    1
   102    19    83    1
   103    20    23    1
   104    21    84    1
   105    21    85    1
   106    22    86    1
   107    22    87    1
   108    27    45    1
   109    28    34    1
   110    32    58    1
   111    33    46    2
   112    36    51    1
   113    36    66    1
   114    37    52    1
   115    37    67    1
   116    38    53    1
   117    38    68    1
   118    42    48    1
   119    42    72    1
   120    43    44    2
   121    60    73    1
   122    61    74    1
   123    39    69    1
   124    39    57    1
   125    40    70    1
   126    40    50    1
   127    41    71    1
   128    41    49    1
