@<TRIPOS>MOLECULE
*****
 123 128 0 0 0
SMALL
GASTEIGER

@<TRIPOS>ATOM
     1 C         5.192662   1.659594   0.530358 C.3        1 UNL1     0.0009
     2 C         6.6278   2.501406   -0.287424 C.2        1 UNL1     -0.0787
     3 C         7.900058   2.430929   -0.974766 C.2        1 UNL1     -0.0649
     4 C         8.782153   3.701021   -1.664064 C.2        1 UNL1     -0.0542
     5 C         9.793685   4.040309   -2.59614 C.2        1 UNL1     0.0115
     6 C         10.903728   3.457645   -3.513543 C.3        1 UNL1     -0.0348
     7 C         9.898496   5.55718   -3.111025 C.2        1 UNL1     0.2441
     8 O         10.73642   6.34499   -2.694175 O.2        1 UNL1     -0.2702
     9 N         9.136154   5.844282   -4.256694 N.am        1 UNL1     -0.2772
     10 C         7.861984   6.224493   -3.902782 C.2        1 UNL1     0.1049
     11 C         7.008794   5.245971   -3.660329 C.2        1 UNL1     0.0801
     12 C         6.599856   7.754481   -2.378479 C.ar        1 UNL1     0.0753
     13 C         5.833522   6.609203   -1.991594 C.ar        1 UNL1     0.0305
     14 C         5.927371   5.344809   -2.717921 C.2        1 UNL1     0.0924
     15 N         7.114131   3.928163   -3.902843 N.pl3        1 UNL1     -0.3170
     16 C         5.841486   3.32431   -3.609605 C.3        1 UNL1     0.1275
     17 N         5.228388   4.22377   -2.56423 N.2        1 UNL1     -0.2557
     18 C         4.973671   3.470666   -4.855871 C.3        1 UNL1     0.0016
     19 C         5.706495   2.849754   -6.034441 C.3        1 UNL1     0.0026
     20 N         5.965567   1.447585   -5.738075 N.3        1 UNL1     -0.3018
     21 C         6.742435   1.202572   -4.521188 C.3        1 UNL1     0.0026
     22 C         5.985729   1.830627   -3.349505 C.3        1 UNL1     0.0016
     23 C         6.38674   0.693646   -6.902047 C.3        1 UNL1     0.0012
     24 C         5.216338   0.517861   -7.882361 C.3        1 UNL1     -0.0339
     25 C         5.248798   1.580388   -8.993235 C.3        1 UNL1     -0.0615
     26 C         5.22285   -0.889152   -8.454244 C.3        1 UNL1     -0.0615
     27 C         6.416534   8.988435   -1.758906 C.ar        1 UNL1     0.1347
     28 C         5.472693   9.208253   -0.771539 C.ar        1 UNL1     0.0342
     29 C         4.763935   8.055037   -0.372895 C.ar        1 UNL1     0.1435
     30 C         4.962298   6.804503   -0.959441 C.ar        1 UNL1     0.0774
     31 O         3.735051   8.126657   0.499616 O.3        1 UNL1     -0.4436
     32 C         2.997528   6.912805   0.29106 C.3        1 UNL1     0.3143
     33 C         3.992618   5.943778   -0.31474 C.2        1 UNL1     0.2504
     34 C         5.047127   10.549144   -0.24144 C.3        1 UNL1     -0.0327
     35 O         2.648352   6.399305   1.582434 O.2        1 UNL1     -0.4528
     36 C         -0.621396   4.530224   1.109811 C.3        1 UNL1     0.0854
     37 C         -0.952355   3.330978   0.140379 C.3        1 UNL1     0.0236
     38 C         -1.557486   2.030055   0.856731 C.3        1 UNL1     0.1131
     39 C         -0.821689   1.4118   2.113168 C.3        1 UNL1     0.0200
     40 C         0.838104   1.246212   2.123377 C.3        1 UNL1     0.0661
     41 C         1.773901   0.541022   0.896755 C.3        1 UNL1     0.0091
     42 C         3.478369   0.919515   0.333784 C.3        1 UNL1     0.0661
     43 C         7.533376   7.606444   -3.522544 C.2        1 UNL1     0.2131
     44 O         7.934556   8.542966   -4.189416 O.2        1 UNL1     -0.2851
     45 O         7.234861   10.041197   -2.163223 O.3        1 UNL1     -0.5056
     46 O         3.996399   4.734352   -0.258798 O.2        1 UNL1     -0.2836
     47 C         5.601989   1.137655   1.93393 C.3        1 UNL1     -0.0566
     48 O         3.911663   -0.498668   0.322309 O.3        1 UNL1     -0.3909
     49 C         0.921674   0.394611   -0.344119 C.3        1 UNL1     -0.0577
     50 O         1.457126   2.430916   2.582736 O.3        1 UNL1     -0.3910
     51 O         -0.730271   4.256084   2.48837 O.3        1 UNL1     -0.3753
     52 C         0.07571   3.231017   -1.033519 C.3        1 UNL1     -0.0564
     53 O         -2.183189   1.0553   -0.097563 O.3        1 UNL1     -0.4608
     54 C         -2.42835   -0.267394   0.163789 C.2        1 UNL1     0.3042
     55 O         -1.876292   -1.243528   -0.342407 O.2        1 UNL1     -0.2512
     56 C         -3.456743   -0.487918   1.236397 C.3        1 UNL1     0.0332
     57 C         -1.519167   2.009086   3.422728 C.3        1 UNL1     -0.0567
     58 C         1.911764   7.23606   -0.761629 C.3        1 UNL1     0.0210
     59 C         -1.02062   5.390282   3.303942 C.3        1 UNL1     0.0372
     60 C         0.711762   5.158118   0.901008 C.2        1 UNL1     -0.0208
     61 C         1.640432   5.528879   1.783535 C.2        1 UNL1     0.0882
     62 H         4.729219   2.641513   0.684528 H        1 UNL1     0.0365
     63 H         6.375026   3.549452   -0.113716 H        1 UNL1     0.0576
     64 H         8.343765   1.474779   -1.261136 H        1 UNL1     0.0615
     65 H         8.310001   4.598347   -1.254965 H        1 UNL1     0.0622
     66 H         -1.361229   5.302459   0.856143 H        1 UNL1     0.0645
     67 H         -1.821857   3.686852   -0.439171 H        1 UNL1     0.0362
     68 H         -2.495001   2.454427   1.247239 H        1 UNL1     0.0741
     69 H         -1.162352   0.394151   2.250084 H        1 UNL1     0.0359
     70 H         0.953279   0.531424   2.960558 H        1 UNL1     0.0600
     71 H         1.811067   -0.505029   1.259183 H        1 UNL1     0.0348
     72 H         3.390358   1.347226   1.343058 H        1 UNL1     0.0602
     73 H         0.818958   5.417899   -0.122843 H        1 UNL1     0.0628
     74 H         1.633833   5.252574   2.838452 H        1 UNL1     0.1022
     75 H         10.93529   2.344359   -3.432102 H        1 UNL1     0.0279
     76 H         10.779092   3.610844   -4.583153 H        1 UNL1     0.0279
     77 H         11.916354   3.728198   -3.180241 H        1 UNL1     0.0279
     78 H         9.057598   5.009212   -4.833378 H        1 UNL1     0.1553
     79 H         7.766667   3.532123   -4.554213 H        1 UNL1     0.1484
     80 H         4.009308   2.978974   -4.679778 H        1 UNL1     0.0317
     81 H         4.755634   4.524576   -5.059299 H        1 UNL1     0.0317
     82 H         6.640036   3.385395   -6.261381 H        1 UNL1     0.0428
     83 H         5.070923   2.966697   -6.912748 H        1 UNL1     0.0428
     84 H         6.854605   0.14125   -4.278651 H        1 UNL1     0.0428
     85 H         7.775315   1.565276   -4.615645 H        1 UNL1     0.0428
     86 H         6.510547   1.519002   -2.465512 H        1 UNL1     0.0317
     87 H         5.002495   1.356676   -3.241257 H        1 UNL1     0.0317
     88 H         7.182331   1.258496   -7.405311 H        1 UNL1     0.0429
     89 H         6.81278   -0.276618   -6.61595 H        1 UNL1     0.0429
     90 H         4.271423   0.614156   -7.33457 H        1 UNL1     0.0308
     91 H         6.194563   1.552616   -9.542653 H        1 UNL1     0.0233
     92 H         4.42298   1.432856   -9.693141 H        1 UNL1     0.0233
     93 H         5.13873   2.598524   -8.600657 H        1 UNL1     0.0233
     94 H         4.516492   -0.961112   -9.28834 H        1 UNL1     0.0233
     95 H         6.218878   -1.133538   -8.833938 H        1 UNL1     0.0233
     96 H         4.941926   -1.628271   -7.698762 H        1 UNL1     0.0233
     97 H         4.256201   10.462773   0.497617 H        1 UNL1     0.0280
     98 H         5.869819   11.076369   0.259028 H        1 UNL1     0.0280
     99 H         4.677951   11.173796   -1.071269 H        1 UNL1     0.0280
     100 H         6.772533   10.815748   -2.431449 H        1 UNL1     0.2922
     101 H         4.740626   0.682835   2.422652 H        1 UNL1     0.0236
     102 H         6.069203   1.900738   2.555541 H        1 UNL1     0.0236
     103 H         6.348884   0.328544   1.87328 H        1 UNL1     0.0236
     104 H         4.34029   -0.68308   1.180936 H        1 UNL1     0.2098
     105 H         0.712229   1.329439   -0.857969 H        1 UNL1     0.0234
     106 H         1.273746   -0.355186   -1.052481 H        1 UNL1     0.0234
     107 H         0.0   -0.0   0.0 H        1 UNL1     0.0234
     108 H         1.262843   3.131409   1.930561 H        1 UNL1     0.2098
     109 H         1.105431   3.095633   -0.674272 H        1 UNL1     0.0234
     110 H         -0.168038   2.441994   -1.753085 H        1 UNL1     0.0234
     111 H         0.089954   4.147598   -1.638187 H        1 UNL1     0.0234
     112 H         -3.598433   -1.560337   1.401286 H        1 UNL1     0.0342
     113 H         -3.195924   0.018937   2.164252 H        1 UNL1     0.0342
     114 H         -4.41168   -0.071862   0.886887 H        1 UNL1     0.0342
     115 H         -2.591015   1.770391   3.459526 H        1 UNL1     0.0234
     116 H         -1.073978   1.665719   4.358653 H        1 UNL1     0.0234
     117 H         -1.545697   3.112189   3.442765 H        1 UNL1     0.0234
     118 H         1.020938   7.704704   -0.30797 H        1 UNL1     0.0309
     119 H         2.276861   7.872572   -1.573885 H        1 UNL1     0.0309
     120 H         1.508314   6.3365   -1.239255 H        1 UNL1     0.0309
     121 H         -0.193317   6.091758   3.199734 H        1 UNL1     0.0524
     122 H         -1.939181   5.910598   2.985268 H        1 UNL1     0.0524
     123 H         -1.12814   5.089058   4.342113 H        1 UNL1     0.0524
@<TRIPOS>BOND
     1     1     2    1
     2     1    42    1
     3     2     3    2
     4     3     4    1
     5     4     5    2
     6     5     7    1
     7     6    75    1
     8     6    76    1
     9     6    77    1
    10     7     9   am
    11     9    10    1
    12    10    11    2
    13    10    43    1
    14    11    14    1
    15    11    15    1
    16    12    13   ar
    17    12    27   ar
    18    12    43    1
    19    13    14    1
    20    13    30   ar
    21    14    17    2
    22    15    16    1
    23    16    17    1
    24    16    18    1
    25    16    22    1
    26    18    19    1
    27    19    20    1
    28    20    21    1
    29    21    22    1
    30    23    24    1
    31    23    88    1
    32    23    89    1
    33    24    25    1
    34    24    26    1
    35    24    90    1
    36    25    91    1
    37    25    92    1
    38    25    93    1
    39    26    94    1
    40    26    95    1
    41    26    96    1
    42    27    28   ar
    43    28    29   ar
    44    29    30   ar
    45    29    31    1
    46    30    33    1
    47    31    32    1
    48    32    33    1
    49    32    35    1
    50    34    97    1
    51    34    98    1
    52    34    99    1
    53    35    61    1
    54    36    37    1
    55    36    60    1
    56    37    38    1
    57    38    39    1
    58    39    40    1
    59    40    41    1
    60    41    42    1
    61    45   100    1
    62    47   101    1
    63    47   102    1
    64    47   103    1
    65    48   104    1
    66    49   105    1
    67    49   106    1
    68    49   107    1
    69    50   108    1
    70    51    59    1
    71    52   109    1
    72    52   110    1
    73    52   111    1
    74    53    54    1
    75    54    55    2
    76    54    56    1
    77    56   112    1
    78    56   113    1
    79    56   114    1
    80    57   115    1
    81    57   116    1
    82    57   117    1
    83    58   118    1
    84    58   119    1
    85    58   120    1
    86    59   121    1
    87    59   122    1
    88    59   123    1
    89    60    61    2
    90     1    47    1
    91     1    62    1
    92     2    63    1
    93     3    64    1
    94     4    65    1
    95     5     6    1
    96     7     8    2
    97     9    78    1
    98    15    79    1
    99    18    80    1
   100    18    81    1
   101    19    82    1
   102    19    83    1
   103    20    23    1
   104    21    84    1
   105    21    85    1
   106    22    86    1
   107    22    87    1
   108    27    45    1
   109    28    34    1
   110    32    58    1
   111    33    46    2
   112    36    51    1
   113    36    66    1
   114    37    52    1
   115    37    67    1
   116    38    53    1
   117    38    68    1
   118    42    48    1
   119    42    72    1
   120    43    44    2
   121    60    73    1
   122    61    74    1
   123    39    69    1
   124    39    57    1
   125    40    70    1
   126    40    50    1
   127    41    71    1
   128    41    49    1
