@<TRIPOS>MOLECULE
*****
 123 128 0 0 0
SMALL
GASTEIGER

@<TRIPOS>ATOM
     1 C         2.692455   -1.413913   -3.817689 C.3        1 UNL1     0.0009
     2 C         2.875808   -2.856188   -4.968021 C.2        1 UNL1     -0.0787
     3 C         3.386518   -4.181329   -5.249485 C.2        1 UNL1     -0.0649
     4 C         3.088266   -5.144238   -6.609709 C.2        1 UNL1     -0.0542
     5 C         3.108014   -6.463745   -7.125063 C.2        1 UNL1     0.0115
     6 C         3.573211   -7.917945   -6.838327 C.3        1 UNL1     -0.0348
     7 C         2.270923   -6.790857   -8.455201 C.2        1 UNL1     0.2441
     8 O         2.78991   -6.903124   -9.557278 O.2        1 UNL1     -0.2702
     9 N         0.943909   -7.196968   -8.231019 N.am        1 UNL1     -0.2772
     10 C         0.11063   -6.103603   -8.171689 C.2        1 UNL1     0.1049
     11 C         0.047886   -5.48208   -7.008076 C.2        1 UNL1     0.0801
     12 C         -0.479152   -3.991495   -9.375221 C.ar        1 UNL1     0.0753
     13 C         -0.328983   -3.325278   -8.117361 C.ar        1 UNL1     0.0305
     14 C         -0.189433   -4.070851   -6.868482 C.2        1 UNL1     0.0924
     15 N         0.503586   -5.859778   -5.801341 N.pl3        1 UNL1     -0.3170
     16 C         0.028023   -4.906677   -4.834029 C.3        1 UNL1     0.1275
     17 N         -0.140054   -3.626709   -5.615794 N.2        1 UNL1     -0.2557
     18 C         -1.376258   -5.34032   -4.424575 C.3        1 UNL1     0.0016
     19 C         -1.314515   -6.772215   -3.917175 C.3        1 UNL1     0.0026
     20 N         -0.398159   -6.828764   -2.786634 N.3        1 UNL1     -0.3018
     21 C         0.964442   -6.371705   -3.067315 C.3        1 UNL1     0.0026
     22 C         0.879059   -4.929932   -3.571197 C.3        1 UNL1     0.0016
     23 C         -0.492713   -8.070799   -2.045652 C.3        1 UNL1     0.0012
     24 C         -1.097702   -9.177269   -2.923986 C.3        1 UNL1     -0.0339
     25 C         -0.301023   -10.487076   -2.80667 C.3        1 UNL1     -0.0615
     26 C         -2.561236   -9.379735   -2.572056 C.3        1 UNL1     -0.0615
     27 C         -0.732434   -3.277806   -10.544244 C.ar        1 UNL1     0.1347
     28 C         -0.895119   -1.904229   -10.573761 C.ar        1 UNL1     0.0342
     29 C         -0.694534   -1.264766   -9.331982 C.ar        1 UNL1     0.1435
     30 C         -0.404536   -1.963277   -8.159291 C.ar        1 UNL1     0.0774
     31 O         -0.925673   0.056881   -9.174404 O.3        1 UNL1     -0.4436
     32 C         -1.080965   0.231535   -7.757982 C.3        1 UNL1     0.3143
     33 C         -0.35732   -0.943622   -7.132236 C.2        1 UNL1     0.2504
     34 C         -1.413577   -1.102528   -11.735044 C.3        1 UNL1     -0.0327
     35 O         -0.354845   1.411431   -7.392129 O.2        1 UNL1     -0.4528
     36 C         -2.176749   2.867925   -4.397571 C.3        1 UNL1     0.0854
     37 C         -2.504489   2.197608   -3.008045 C.3        1 UNL1     0.0236
     38 C         -1.984142   3.009328   -1.726603 C.3        1 UNL1     0.1131
     39 C         -0.477913   3.487808   -1.658755 C.3        1 UNL1     0.0200
     40 C         0.755361   2.464265   -2.121175 C.3        1 UNL1     0.0661
     41 C         0.96424   0.862527   -1.603086 C.3        1 UNL1     0.0091
     42 C         1.671915   -0.587725   -2.47565 C.3        1 UNL1     0.0661
     43 C         -0.445216   -5.475102   -9.379321 C.2        1 UNL1     0.2131
     44 O         -0.933526   -6.157066   -10.262053 O.2        1 UNL1     -0.2851
     45 O         -0.819652   -3.998161   -11.733748 O.3        1 UNL1     -0.5056
     46 O         0.161016   -1.014702   -6.04039 O.2        1 UNL1     -0.2836
     47 C         4.019085   -0.611064   -3.743743 C.3        1 UNL1     -0.0566
     48 O         2.534053   -0.994141   -1.339578 O.3        1 UNL1     -0.3909
     49 C         -0.309133   0.396297   -0.933277 C.3        1 UNL1     -0.0577
     50 O         0.988057   2.55637   -3.512251 O.3        1 UNL1     -0.3910
     51 O         -1.326335   3.991468   -4.354232 O.3        1 UNL1     -0.3753
     52 C         -2.441278   0.637174   -3.085498 C.3        1 UNL1     -0.0564
     53 O         -2.598671   2.552256   -0.435958 O.3        1 UNL1     -0.4608
     54 C         -2.070126   2.754904   0.812042 C.2        1 UNL1     0.3042
     55 O         -2.330957   3.668041   1.594337 O.2        1 UNL1     -0.2512
     56 C         -1.112395   1.680107   1.241318 C.3        1 UNL1     0.0332
     57 C         -0.427852   4.998715   -2.181085 C.3        1 UNL1     -0.0567
     58 C         -2.593544   0.099799   -7.464246 C.3        1 UNL1     0.0210
     59 C         -1.402836   4.845449   -5.494727 C.3        1 UNL1     0.0372
     60 C         -1.61839   1.946317   -5.424232 C.2        1 UNL1     -0.0208
     61 C         -0.593476   2.105282   -6.262699 C.2        1 UNL1     0.0882
     62 H         2.067872   -0.917648   -4.570237 H        1 UNL1     0.0365
     63 H         2.383804   -2.467391   -5.862023 H        1 UNL1     0.0576
     64 H         3.908646   -4.766915   -4.489498 H        1 UNL1     0.0615
     65 H         2.642461   -4.450355   -7.32753 H        1 UNL1     0.0622
     66 H         -3.152796   3.193629   -4.78396 H        1 UNL1     0.0645
     67 H         -3.598316   2.30802   -2.908483 H        1 UNL1     0.0362
     68 H         -2.577829   3.929442   -1.83817 H        1 UNL1     0.0741
     69 H         -0.229055   3.709047   -0.62942 H        1 UNL1     0.0359
     70 H         1.617396   2.984501   -1.661489 H        1 UNL1     0.0600
     71 H         1.622434   1.026883   -0.727458 H        1 UNL1     0.0348
     72 H         2.037993   0.298481   -3.014112 H        1 UNL1     0.0602
     73 H         -2.25398   1.100977   -5.517372 H        1 UNL1     0.0628
     74 H         0.137498   2.911889   -6.197121 H        1 UNL1     0.1022
     75 H         4.682651   -7.958015   -6.717611 H        1 UNL1     0.0279
     76 H         3.220463   -8.366459   -5.912329 H        1 UNL1     0.0279
     77 H         3.424154   -8.589193   -7.69676 H        1 UNL1     0.0279
     78 H         0.880267   -7.679493   -7.33704 H        1 UNL1     0.1553
     79 H         0.731967   -6.807614   -5.563891 H        1 UNL1     0.1484
     80 H         -1.750347   -4.657481   -3.652206 H        1 UNL1     0.0317
     81 H         -2.069866   -5.268367   -5.269194 H        1 UNL1     0.0317
     82 H         -1.009665   -7.472013   -4.709173 H        1 UNL1     0.0428
     83 H         -2.326463   -7.061859   -3.632363 H        1 UNL1     0.0428
     84 H         1.610129   -6.348828   -2.183926 H        1 UNL1     0.0428
     85 H         1.486321   -7.044408   -3.761888 H        1 UNL1     0.0428
     86 H         1.89457   -4.586158   -3.638622 H        1 UNL1     0.0317
     87 H         0.444472   -4.287159   -2.795908 H        1 UNL1     0.0317
     88 H         0.521685   -8.372131   -1.753266 H        1 UNL1     0.0429
     89 H         -1.068698   -7.940312   -1.120456 H        1 UNL1     0.0429
     90 H         -1.083597   -8.852588   -3.971171 H        1 UNL1     0.0308
     91 H         -0.079649   -10.725751   -1.762098 H        1 UNL1     0.0233
     92 H         -0.853138   -11.316495   -3.254824 H        1 UNL1     0.0233
     93 H         0.660129   -10.439825   -3.332779 H        1 UNL1     0.0233
     94 H         -2.890324   -10.376787   -2.884187 H        1 UNL1     0.0233
     95 H         -2.699465   -9.302503   -1.48998 H        1 UNL1     0.0233
     96 H         -3.196163   -8.636854   -3.062937 H        1 UNL1     0.0233
     97 H         -0.679917   -1.017086   -12.53108 H        1 UNL1     0.0280
     98 H         -2.30034   -1.561295   -12.191594 H        1 UNL1     0.0280
     99 H         -1.674545   -0.086917   -11.395153 H        1 UNL1     0.0280
     100 H         -1.580363   -4.547741   -11.803769 H        1 UNL1     0.2922
     101 H         3.860171   0.310985   -3.18497 H        1 UNL1     0.0236
     102 H         4.462909   -0.42556   -4.721287 H        1 UNL1     0.0236
     103 H         4.798239   -1.149774   -3.179028 H        1 UNL1     0.0236
     104 H         3.388295   -0.529576   -1.43664 H        1 UNL1     0.2098
     105 H         -1.028841   1.187059   -0.736997 H        1 UNL1     0.0234
     106 H         -0.797962   -0.446837   -1.42123 H        1 UNL1     0.0234
     107 H         0.0   -0.0   0.0 H        1 UNL1     0.0234
     108 H         0.155845   2.314118   -3.962257 H        1 UNL1     0.2098
     109 H         -1.450496   0.275819   -3.394507 H        1 UNL1     0.0234
     110 H         -2.734681   0.147607   -2.150628 H        1 UNL1     0.0234
     111 H         -3.147143   0.239831   -3.826997 H        1 UNL1     0.0234
     112 H         -1.31787   1.390205   2.27625 H        1 UNL1     0.0342
     113 H         -1.143685   0.815624   0.579855 H        1 UNL1     0.0342
     114 H         -0.094586   2.0921   1.202726 H        1 UNL1     0.0342
     115 H         -1.148044   5.637846   -1.651912 H        1 UNL1     0.0234
     116 H         0.554364   5.467023   -2.091702 H        1 UNL1     0.0234
     117 H         -0.766752   5.114767   -3.224934 H        1 UNL1     0.0234
     118 H         -2.786736   -0.419013   -6.508989 H        1 UNL1     0.0309
     119 H         -3.116025   1.061677   -7.461453 H        1 UNL1     0.0309
     120 H         -3.111829   -0.52467   -8.200131 H        1 UNL1     0.0309
     121 H         -0.450004   5.367088   -5.580514 H        1 UNL1     0.0524
     122 H         -1.558096   4.281827   -6.429748 H        1 UNL1     0.0524
     123 H         -2.212089   5.56027   -5.375413 H        1 UNL1     0.0524
@<TRIPOS>BOND
     1     1     2    1
     2     1    42    1
     3     2     3    2
     4     3     4    1
     5     4     5    2
     6     5     7    1
     7     6    75    1
     8     6    76    1
     9     6    77    1
    10     7     9   am
    11     9    10    1
    12    10    11    2
    13    10    43    1
    14    11    14    1
    15    11    15    1
    16    12    13   ar
    17    12    27   ar
    18    12    43    1
    19    13    14    1
    20    13    30   ar
    21    14    17    2
    22    15    16    1
    23    16    17    1
    24    16    18    1
    25    16    22    1
    26    18    19    1
    27    19    20    1
    28    20    21    1
    29    21    22    1
    30    23    24    1
    31    23    88    1
    32    23    89    1
    33    24    25    1
    34    24    26    1
    35    24    90    1
    36    25    91    1
    37    25    92    1
    38    25    93    1
    39    26    94    1
    40    26    95    1
    41    26    96    1
    42    27    28   ar
    43    28    29   ar
    44    29    30   ar
    45    29    31    1
    46    30    33    1
    47    31    32    1
    48    32    33    1
    49    32    35    1
    50    34    97    1
    51    34    98    1
    52    34    99    1
    53    35    61    1
    54    36    37    1
    55    36    60    1
    56    37    38    1
    57    38    39    1
    58    39    40    1
    59    40    41    1
    60    41    42    1
    61    45   100    1
    62    47   101    1
    63    47   102    1
    64    47   103    1
    65    48   104    1
    66    49   105    1
    67    49   106    1
    68    49   107    1
    69    50   108    1
    70    51    59    1
    71    52   109    1
    72    52   110    1
    73    52   111    1
    74    53    54    1
    75    54    55    2
    76    54    56    1
    77    56   112    1
    78    56   113    1
    79    56   114    1
    80    57   115    1
    81    57   116    1
    82    57   117    1
    83    58   118    1
    84    58   119    1
    85    58   120    1
    86    59   121    1
    87    59   122    1
    88    59   123    1
    89    60    61    2
    90     1    47    1
    91     1    62    1
    92     2    63    1
    93     3    64    1
    94     4    65    1
    95     5     6    1
    96     7     8    2
    97     9    78    1
    98    15    79    1
    99    18    80    1
   100    18    81    1
   101    19    82    1
   102    19    83    1
   103    20    23    1
   104    21    84    1
   105    21    85    1
   106    22    86    1
   107    22    87    1
   108    27    45    1
   109    28    34    1
   110    32    58    1
   111    33    46    2
   112    36    51    1
   113    36    66    1
   114    37    52    1
   115    37    67    1
   116    38    53    1
   117    38    68    1
   118    42    48    1
   119    42    72    1
   120    43    44    2
   121    60    73    1
   122    61    74    1
   123    39    69    1
   124    39    57    1
   125    40    70    1
   126    40    50    1
   127    41    71    1
   128    41    49    1
