@<TRIPOS>MOLECULE
*****
 123 128 0 0 0
SMALL
GASTEIGER

@<TRIPOS>ATOM
     1 C         5.166457   1.760107   0.457186 C.3        1 UNL1     0.0009
     2 C         6.595851   2.569028   -0.402765 C.2        1 UNL1     -0.0787
     3 C         7.873592   2.473384   -1.076765 C.2        1 UNL1     -0.0649
     4 C         8.743448   3.710144   -1.838429 C.2        1 UNL1     -0.0542
     5 C         9.756728   4.004673   -2.783731 C.2        1 UNL1     0.0115
     6 C         10.880634   3.381373   -3.656459 C.3        1 UNL1     -0.0348
     7 C         9.844924   5.487927   -3.391323 C.2        1 UNL1     0.2441
     8 O         10.669464   6.311478   -3.01927 O.2        1 UNL1     -0.2702
     9 N         9.086676   5.692878   -4.557174 N.am        1 UNL1     -0.2772
     10 C         7.805192   6.076896   -4.235227 C.2        1 UNL1     0.1049
     11 C         6.963419   5.103758   -3.937495 C.2        1 UNL1     0.0801
     12 C         6.512513   7.681218   -2.816613 C.ar        1 UNL1     0.0753
     13 C         5.758813   6.551818   -2.363841 C.ar        1 UNL1     0.0305
     14 C         5.874375   5.246154   -3.009549 C.2        1 UNL1     0.0924
     15 N         7.087875   3.774994   -4.096945 N.pl3        1 UNL1     -0.3170
     16 C         5.821379   3.173191   -3.774341 C.3        1 UNL1     0.1275
     17 N         5.189288   4.127381   -2.79062 N.2        1 UNL1     -0.2557
     18 C         4.960223   3.229993   -5.032469 C.3        1 UNL1     0.0016
     19 C         5.709241   2.547149   -6.165733 C.3        1 UNL1     0.0026
     20 N         5.984858   1.169765   -5.781187 N.3        1 UNL1     -0.3018
     21 C         6.756585   1.011438   -4.54679 C.3        1 UNL1     0.0026
     22 C         5.98364   1.700656   -3.420988 C.3        1 UNL1     0.0016
     23 C         6.423924   0.350812   -6.893474 C.3        1 UNL1     0.0012
     24 C         5.262672   0.098511   -7.867945 C.3        1 UNL1     -0.0339
     25 C         5.347844   1.020898   -9.095139 C.3        1 UNL1     -0.0615
     26 C         5.229286   -1.365632   -8.270378 C.3        1 UNL1     -0.0615
     27 C         6.30862   8.94865   -2.276093 C.ar        1 UNL1     0.1347
     28 C         5.355232   9.216454   -1.309976 C.ar        1 UNL1     0.0342
     29 C         4.659126   8.080649   -0.844629 C.ar        1 UNL1     0.1435
     30 C         4.878053   6.798927   -1.351066 C.ar        1 UNL1     0.0774
     31 O         3.623453   8.19226   0.015564 O.3        1 UNL1     -0.4436
     32 C         2.903533   6.957837   -0.121504 C.3        1 UNL1     0.3143
     33 C         3.915497   5.966739   -0.659896 C.2        1 UNL1     0.2504
     34 C         4.908314   10.581741   -0.866856 C.3        1 UNL1     -0.0327
     35 O         2.552395   6.520811   1.197193 O.2        1 UNL1     -0.4528
     36 C         -0.688978   4.581494   0.822169 C.3        1 UNL1     0.0854
     37 C         -0.997381   3.319945   -0.072763 C.3        1 UNL1     0.0236
     38 C         -1.590081   2.05788   0.719476 C.3        1 UNL1     0.1131
     39 C         -0.854739   1.528963   2.016314 C.3        1 UNL1     0.0200
     40 C         0.806996   1.387017   2.046737 C.3        1 UNL1     0.0661
     41 C         1.76041   0.619854   0.871972 C.3        1 UNL1     0.0091
     42 C         3.46351   0.985899   0.296763 C.3        1 UNL1     0.0661
     43 C         7.455698   7.475177   -3.943648 C.2        1 UNL1     0.2131
     44 O         7.848964   8.373865   -4.665062 O.2        1 UNL1     -0.2851
     45 O         7.115654   9.985348   -2.740198 O.3        1 UNL1     -0.5056
     46 O         3.934935   4.763287   -0.528822 O.2        1 UNL1     -0.2836
     47 C         5.573083   1.331989   1.892927 C.3        1 UNL1     -0.0566
     48 O         3.915642   -0.424207   0.376107 O.3        1 UNL1     -0.3909
     49 C         0.918687   0.38503   -0.362472 C.3        1 UNL1     -0.0577
     50 O         1.407104   2.606309   2.435222 O.3        1 UNL1     -0.3910
     51 O         -0.80361   4.392042   2.214432 O.3        1 UNL1     -0.3753
     52 C         0.039905   3.161321   -1.231998 C.3        1 UNL1     -0.0564
     53 O         -2.196275   1.017282   -0.176074 O.3        1 UNL1     -0.4608
     54 C         -2.394503   -0.297927   0.153863 C.2        1 UNL1     0.3042
     55 O         -1.812408   -1.279324   -0.306425 O.2        1 UNL1     -0.2512
     56 C         -3.408357   -0.49823   1.244135 C.3        1 UNL1     0.0332
     57 C         -1.568995   2.196847   3.281994 C.3        1 UNL1     -0.0567
     58 C         1.820786   7.200225   -1.19874 C.3        1 UNL1     0.0210
     59 C         -1.114533   5.570632   2.956133 C.3        1 UNL1     0.0372
     60 C         0.63713   5.21336   0.582702 C.2        1 UNL1     -0.0208
     61 C         1.554758   5.650868   1.446004 C.2        1 UNL1     0.0882
     62 H         4.688992   2.743282   0.54721 H        1 UNL1     0.0365
     63 H         6.328022   3.622288   -0.296092 H        1 UNL1     0.0576
     64 H         8.331884   1.507444   -1.300453 H        1 UNL1     0.0615
     65 H         8.256658   4.624612   -1.488764 H        1 UNL1     0.0622
     66 H         -1.437238   5.326305   0.51654 H        1 UNL1     0.0645
     67 H         -1.867552   3.627226   -0.67852 H        1 UNL1     0.0362
     68 H         -2.535783   2.492841   1.077217 H        1 UNL1     0.0741
     69 H         -1.182802   0.517223   2.214216 H        1 UNL1     0.0359
     70 H         0.925925   0.727245   2.927428 H        1 UNL1     0.0600
     71 H         1.808971   -0.401062   1.298973 H        1 UNL1     0.0348
     72 H         3.362951   1.474227   1.276937 H        1 UNL1     0.0602
     73 H         0.747854   5.41049   -0.454664 H        1 UNL1     0.0628
     74 H         1.544627   5.440552   2.516005 H        1 UNL1     0.1022
     75 H         10.909747   2.272809   -3.525037 H        1 UNL1     0.0279
     76 H         10.773201   3.486825   -4.733681 H        1 UNL1     0.0279
     77 H         11.888104   3.666176   -3.319425 H        1 UNL1     0.0279
     78 H         9.023138   4.822609   -5.081264 H        1 UNL1     0.1553
     79 H         7.750035   3.348214   -4.718504 H        1 UNL1     0.1484
     80 H         4.001286   2.73706   -4.831912 H        1 UNL1     0.0317
     81 H         4.729621   4.266158   -5.302352 H        1 UNL1     0.0317
     82 H         6.637123   3.080364   -6.419955 H        1 UNL1     0.0428
     83 H         5.078181   2.600624   -7.053401 H        1 UNL1     0.0428
     84 H         6.881162   -0.03114   -4.238047 H        1 UNL1     0.0428
     85 H         7.785185   1.381651   -4.657438 H        1 UNL1     0.0428
     86 H         6.5065   1.451734   -2.516198 H        1 UNL1     0.0317
     87 H         5.006062   1.220956   -3.289359 H        1 UNL1     0.0317
     88 H         7.215369   0.89413   -7.426123 H        1 UNL1     0.0429
     89 H         6.860831   -0.593899   -6.54504 H        1 UNL1     0.0429
     90 H         4.31369   0.289294   -7.352922 H        1 UNL1     0.0308
     91 H         6.300049   0.897904   -9.61981 H        1 UNL1     0.0233
     92 H         4.527796   0.818584   -9.788103 H        1 UNL1     0.0233
     93 H         5.267031   2.081274   -8.826985 H        1 UNL1     0.0233
     94 H         4.547352   -1.509621   -9.115404 H        1 UNL1     0.0233
     95 H         6.225923   -1.690189   -8.582373 H        1 UNL1     0.0233
     96 H         4.894324   -1.999023   -7.444192 H        1 UNL1     0.0233
     97 H         4.113578   10.530642   -0.128605 H        1 UNL1     0.0280
     98 H         5.720507   11.15022   -0.395232 H        1 UNL1     0.0280
     99 H         4.536557   11.148546   -1.736123 H        1 UNL1     0.0280
     100 H         6.645143   10.739511   -3.049197 H        1 UNL1     0.2922
     101 H         4.711374   0.908088   2.408117 H        1 UNL1     0.0236
     102 H         6.03696   2.135158   2.464522 H        1 UNL1     0.0236
     103 H         6.32188   0.522382   1.887227 H        1 UNL1     0.0236
     104 H         4.335762   -0.550555   1.249323 H        1 UNL1     0.2098
     105 H         0.700373   1.28319   -0.934713 H        1 UNL1     0.0234
     106 H         1.285496   -0.402435   -1.02071 H        1 UNL1     0.0234
     107 H         0.0   -0.0   0.0 H        1 UNL1     0.0234
     108 H         1.217603   3.259241   1.734125 H        1 UNL1     0.2098
     109 H         1.068855   3.06259   -0.858869 H        1 UNL1     0.0234
     110 H         -0.188442   2.325876   -1.902544 H        1 UNL1     0.0234
     111 H         0.046117   4.038687   -1.892405 H        1 UNL1     0.0234
     112 H         -3.503179   -1.564068   1.472924 H        1 UNL1     0.0342
     113 H         -3.166025   0.073368   2.138782 H        1 UNL1     0.0342
     114 H         -4.381627   -0.144755   0.876759 H        1 UNL1     0.0342
     115 H         -2.640407   1.956441   3.320321 H        1 UNL1     0.0234
     116 H         -1.13335   1.908864   4.24081 H        1 UNL1     0.0234
     117 H         -1.599352   3.299198   3.239081 H        1 UNL1     0.0234
     118 H         0.919516   7.681104   -0.779844 H        1 UNL1     0.0309
     119 H         2.182087   7.792582   -2.045367 H        1 UNL1     0.0309
     120 H         1.434767   6.267395   -1.624091 H        1 UNL1     0.0309
     121 H         -0.278694   6.260705   2.844206 H        1 UNL1     0.0524
     122 H         -2.017019   6.077976   2.576449 H        1 UNL1     0.0524
     123 H         -1.261708   5.32706   4.004515 H        1 UNL1     0.0524
@<TRIPOS>BOND
     1     1     2    1
     2     1    42    1
     3     2     3    2
     4     3     4    1
     5     4     5    2
     6     5     7    1
     7     6    75    1
     8     6    76    1
     9     6    77    1
    10     7     9   am
    11     9    10    1
    12    10    11    2
    13    10    43    1
    14    11    14    1
    15    11    15    1
    16    12    13   ar
    17    12    27   ar
    18    12    43    1
    19    13    14    1
    20    13    30   ar
    21    14    17    2
    22    15    16    1
    23    16    17    1
    24    16    18    1
    25    16    22    1
    26    18    19    1
    27    19    20    1
    28    20    21    1
    29    21    22    1
    30    23    24    1
    31    23    88    1
    32    23    89    1
    33    24    25    1
    34    24    26    1
    35    24    90    1
    36    25    91    1
    37    25    92    1
    38    25    93    1
    39    26    94    1
    40    26    95    1
    41    26    96    1
    42    27    28   ar
    43    28    29   ar
    44    29    30   ar
    45    29    31    1
    46    30    33    1
    47    31    32    1
    48    32    33    1
    49    32    35    1
    50    34    97    1
    51    34    98    1
    52    34    99    1
    53    35    61    1
    54    36    37    1
    55    36    60    1
    56    37    38    1
    57    38    39    1
    58    39    40    1
    59    40    41    1
    60    41    42    1
    61    45   100    1
    62    47   101    1
    63    47   102    1
    64    47   103    1
    65    48   104    1
    66    49   105    1
    67    49   106    1
    68    49   107    1
    69    50   108    1
    70    51    59    1
    71    52   109    1
    72    52   110    1
    73    52   111    1
    74    53    54    1
    75    54    55    2
    76    54    56    1
    77    56   112    1
    78    56   113    1
    79    56   114    1
    80    57   115    1
    81    57   116    1
    82    57   117    1
    83    58   118    1
    84    58   119    1
    85    58   120    1
    86    59   121    1
    87    59   122    1
    88    59   123    1
    89    60    61    2
    90     1    47    1
    91     1    62    1
    92     2    63    1
    93     3    64    1
    94     4    65    1
    95     5     6    1
    96     7     8    2
    97     9    78    1
    98    15    79    1
    99    18    80    1
   100    18    81    1
   101    19    82    1
   102    19    83    1
   103    20    23    1
   104    21    84    1
   105    21    85    1
   106    22    86    1
   107    22    87    1
   108    27    45    1
   109    28    34    1
   110    32    58    1
   111    33    46    2
   112    36    51    1
   113    36    66    1
   114    37    52    1
   115    37    67    1
   116    38    53    1
   117    38    68    1
   118    42    48    1
   119    42    72    1
   120    43    44    2
   121    60    73    1
   122    61    74    1
   123    39    69    1
   124    39    57    1
   125    40    70    1
   126    40    50    1
   127    41    71    1
   128    41    49    1
