@<TRIPOS>MOLECULE
*****
 123 128 0 0 0
SMALL
GASTEIGER

@<TRIPOS>ATOM
     1 C         5.116633   1.915236   0.388856 C.3        1 UNL1     0.0009
     2 C         6.555506   2.649858   -0.520545 C.2        1 UNL1     -0.0787
     3 C         7.854279   2.504613   -1.143553 C.2        1 UNL1     -0.0649
     4 C         8.723007   3.66313   -2.02077 C.2        1 UNL1     -0.0542
     5 C         9.758216   3.867841   -2.966028 C.2        1 UNL1     0.0115
     6 C         10.919062   3.172105   -3.728728 C.3        1 UNL1     -0.0348
     7 C         9.836561   5.271775   -3.740508 C.2        1 UNL1     0.2441
     8 O         10.634074   6.151106   -3.445081 O.2        1 UNL1     -0.2702
     9 N         9.109573   5.322655   -4.942611 N.am        1 UNL1     -0.2772
     10 C         7.812104   5.713131   -4.702976 C.2        1 UNL1     0.1049
     11 C         6.980277   4.762937   -4.316431 C.2        1 UNL1     0.0801
     12 C         6.447951   7.442842   -3.51785 C.ar        1 UNL1     0.0753
     13 C         5.702471   6.357503   -2.956685 C.ar        1 UNL1     0.0305
     14 C         5.861662   4.988369   -3.441642 C.2        1 UNL1     0.0924
     15 N         7.134343   3.427725   -4.315711 N.pl3        1 UNL1     -0.3170
     16 C         5.870344   2.839748   -3.959563 C.3        1 UNL1     0.1275
     17 N         5.1915   3.887851   -3.111993 N.2        1 UNL1     -0.2557
     18 C         5.046035   2.730495   -5.238734 C.3        1 UNL1     0.0016
     19 C         5.841082   1.936984   -6.263346 C.3        1 UNL1     0.0026
     20 N         6.130965   0.620228   -5.712756 N.3        1 UNL1     -0.3018
     21 C         6.868513   0.62393   -4.447695 C.3        1 UNL1     0.0026
     22 C         6.049655   1.422371   -3.431891 C.3        1 UNL1     0.0016
     23 C         6.618185   -0.312842   -6.709069 C.3        1 UNL1     0.0012
     24 C         5.491341   -0.702601   -7.67864 C.3        1 UNL1     -0.0339
     25 C         5.575212   0.09732   -8.98904 C.3        1 UNL1     -0.0615
     26 C         5.519128   -2.199415   -7.93468 C.3        1 UNL1     -0.0615
     27 C         6.204328   8.759802   -3.135253 C.ar        1 UNL1     0.1347
     28 C         5.217795   9.117206   -2.233551 C.ar        1 UNL1     0.0342
     29 C         4.529619   8.028246   -1.657579 C.ar        1 UNL1     0.1435
     30 C         4.787524   6.7014   -2.004256 C.ar        1 UNL1     0.0774
     31 O         3.466933   8.216395   -0.844987 O.3        1 UNL1     -0.4436
     32 C         2.774708   6.958789   -0.856159 C.3        1 UNL1     0.3143
     33 C         3.820652   5.934334   -1.246934 C.2        1 UNL1     0.2504
     34 C         4.732352   10.514605   -1.965745 C.3        1 UNL1     -0.0327
     35 O         2.392811   6.670745   0.494558 O.2        1 UNL1     -0.4528
     36 C         -0.799003   4.629719   0.260837 C.3        1 UNL1     0.0854
     37 C         -1.056939   3.26597   -0.488282 C.3        1 UNL1     0.0236
     38 C         -1.649114   2.09202   0.429822 C.3        1 UNL1     0.1131
     39 C         -0.942827   1.734218   1.799276 C.3        1 UNL1     0.0200
     40 C         0.719643   1.633576   1.89149 C.3        1 UNL1     0.0661
     41 C         1.721776   0.756026   0.841136 C.3        1 UNL1     0.0091
     42 C         3.434041   1.090132   0.273752 C.3        1 UNL1     0.0661
     43 C         7.427909   7.127788   -4.586814 C.2        1 UNL1     0.2131
     44 O         7.825492   7.944768   -5.397498 O.2        1 UNL1     -0.2851
     45 O         7.005186   9.752953   -3.695356 O.3        1 UNL1     -0.5056
     46 O         3.858779   4.755081   -0.975342 O.2        1 UNL1     -0.2836
     47 C         5.488388   1.666437   1.875422 C.3        1 UNL1     -0.0566
     48 O         3.910013   -0.290774   0.530009 O.3        1 UNL1     -0.3909
     49 C         0.921659   0.360396   -0.37984 C.3        1 UNL1     -0.0577
     50 O         1.284943   2.902804   2.150754 O.3        1 UNL1     -0.3910
     51 O         -0.951374   4.601304   1.662053 O.3        1 UNL1     -0.3753
     52 C         0.017127   2.996328   -1.592195 C.3        1 UNL1     -0.0564
     53 O         -2.208788   0.941004   -0.353921 O.3        1 UNL1     -0.4608
     54 C         -2.423629   -0.322168   0.132053 C.2        1 UNL1     0.3042
     55 O         -1.823737   -1.352016   -0.173529 O.2        1 UNL1     -0.2512
     56 C         -3.484551   -0.385711   1.193713 C.3        1 UNL1     0.0332
     57 C         -1.706788   2.529073   2.958044 C.3        1 UNL1     -0.0567
     58 C         1.720085   7.04999   -1.983538 C.3        1 UNL1     0.0210
     59 C         -1.306272   5.851125   2.251852 C.3        1 UNL1     0.0372
     60 C         0.521537   5.258553   -0.01467 C.2        1 UNL1     -0.0208
     61 C         1.404732   5.813868   0.816195 C.2        1 UNL1     0.0882
     62 H         4.618328   2.891401   0.350044 H        1 UNL1     0.0365
     63 H         6.264896   3.70219   -0.545311 H        1 UNL1     0.0576
     64 H         8.337071   1.529563   -1.239977 H        1 UNL1     0.0615
     65 H         8.208958   4.601121   -1.794034 H        1 UNL1     0.0622
     66 H         -1.551705   5.317108   -0.150238 H        1 UNL1     0.0645
     67 H         -1.914344   3.481248   -1.149397 H        1 UNL1     0.0362
     68 H         -2.613028   2.544678   0.708196 H        1 UNL1     0.0741
     69 H         -1.257571   0.745424   2.105268 H        1 UNL1     0.0359
     70 H         0.824719   1.083715   2.846306 H        1 UNL1     0.0600
     71 H         1.776789   -0.206852   1.385926 H        1 UNL1     0.0348
     72 H         3.295253   1.687004   1.186877 H        1 UNL1     0.0602
     73 H         0.659313   5.335861   -1.064569 H        1 UNL1     0.0628
     74 H         1.366765   5.729496   1.902784 H        1 UNL1     0.1022
     75 H         10.965067   2.087324   -3.467639 H        1 UNL1     0.0279
     76 H         10.841721   3.148911   -4.813417 H        1 UNL1     0.0279
     77 H         11.910548   3.516456   -3.399975 H        1 UNL1     0.0279
     78 H         9.077986   4.396053   -5.362715 H        1 UNL1     0.1553
     79 H         7.822575   2.946176   -4.864692 H        1 UNL1     0.1484
     80 H         4.090987   2.243201   -5.008097 H        1 UNL1     0.0317
     81 H         4.804139   3.722796   -5.634304 H        1 UNL1     0.0317
     82 H         6.765933   2.457336   -6.552825 H        1 UNL1     0.0428
     83 H         5.235783   1.872685   -7.168072 H        1 UNL1     0.0428
     84 H         7.003415   -0.372557   -4.015692 H        1 UNL1     0.0428
     85 H         7.892813   1.001388   -4.572801 H        1 UNL1     0.0428
     86 H         6.549983   1.292204   -2.490234 H        1 UNL1     0.0317
     87 H         5.077777   0.939772   -3.271741 H        1 UNL1     0.0317
     88 H         7.414765   0.18208   -7.279864 H        1 UNL1     0.0429
     89 H         7.062208   -1.200619   -6.240593 H        1 UNL1     0.0429
     90 H         4.523618   -0.497545   -7.205694 H        1 UNL1     0.0308
     91 H         6.544037   -0.041149   -9.478229 H        1 UNL1     0.0233
     92 H         4.780425   -0.202402   -9.676127 H        1 UNL1     0.0233
     93 H         5.45078   1.175169   -8.829058 H        1 UNL1     0.0233
     94 H         4.849759   -2.453275   -8.763738 H        1 UNL1     0.0233
     95 H         6.530163   -2.512739   -8.209631 H        1 UNL1     0.0233
     96 H         5.203445   -2.761314   -7.051175 H        1 UNL1     0.0233
     97 H         3.917132   10.532313   -1.248575 H        1 UNL1     0.0280
     98 H         5.519357   11.151993   -1.541934 H        1 UNL1     0.0280
     99 H         4.37601   10.967893   -2.905237 H        1 UNL1     0.0280
     100 H         6.530143   10.450125   -4.112377 H        1 UNL1     0.2922
     101 H         4.619863   1.286501   2.412981 H        1 UNL1     0.0236
     102 H         5.919915   2.540804   2.361479 H        1 UNL1     0.0236
     103 H         6.252093   0.878444   1.98503 H        1 UNL1     0.0236
     104 H         4.3063   -0.305185   1.42316 H        1 UNL1     0.2098
     105 H         0.703619   1.180705   -1.059077 H        1 UNL1     0.0234
     106 H         1.322585   -0.4901   -0.93106 H        1 UNL1     0.0234
     107 H         0.0   -0.0   0.0 H        1 UNL1     0.0234
     108 H         1.104131   3.465239   1.373103 H        1 UNL1     0.2098
     109 H         1.036209   2.964533   -1.182106 H        1 UNL1     0.0234
     110 H         -0.175469   2.083593   -2.166272 H        1 UNL1     0.0234
     111 H         0.026484   3.790684   -2.350389 H        1 UNL1     0.0234
     112 H         -3.591212   -1.414047   1.552175 H        1 UNL1     0.0342
     113 H         -3.28054   0.296167   2.017889 H        1 UNL1     0.0342
     114 H         -4.440184   -0.08563   0.742182 H        1 UNL1     0.0342
     115 H         -2.771579   2.261894   3.003024 H        1 UNL1     0.0234
     116 H         -1.286994   2.374028   3.953928 H        1 UNL1     0.0234
     117 H         -1.767293   3.616452   2.779474 H        1 UNL1     0.0234
     118 H         0.799093   7.559113   -1.649512 H        1 UNL1     0.0309
     119 H         2.096142   7.544779   -2.884631 H        1 UNL1     0.0309
     120 H         1.362197   6.065765   -2.304977 H        1 UNL1     0.0309
     121 H         -0.48058   6.541773   2.082752 H        1 UNL1     0.0524
     122 H         -2.206444   6.290682   1.790857 H        1 UNL1     0.0524
     123 H         -1.479931   5.728181   3.317132 H        1 UNL1     0.0524
@<TRIPOS>BOND
     1     1     2    1
     2     1    42    1
     3     2     3    2
     4     3     4    1
     5     4     5    2
     6     5     7    1
     7     6    75    1
     8     6    76    1
     9     6    77    1
    10     7     9   am
    11     9    10    1
    12    10    11    2
    13    10    43    1
    14    11    14    1
    15    11    15    1
    16    12    13   ar
    17    12    27   ar
    18    12    43    1
    19    13    14    1
    20    13    30   ar
    21    14    17    2
    22    15    16    1
    23    16    17    1
    24    16    18    1
    25    16    22    1
    26    18    19    1
    27    19    20    1
    28    20    21    1
    29    21    22    1
    30    23    24    1
    31    23    88    1
    32    23    89    1
    33    24    25    1
    34    24    26    1
    35    24    90    1
    36    25    91    1
    37    25    92    1
    38    25    93    1
    39    26    94    1
    40    26    95    1
    41    26    96    1
    42    27    28   ar
    43    28    29   ar
    44    29    30   ar
    45    29    31    1
    46    30    33    1
    47    31    32    1
    48    32    33    1
    49    32    35    1
    50    34    97    1
    51    34    98    1
    52    34    99    1
    53    35    61    1
    54    36    37    1
    55    36    60    1
    56    37    38    1
    57    38    39    1
    58    39    40    1
    59    40    41    1
    60    41    42    1
    61    45   100    1
    62    47   101    1
    63    47   102    1
    64    47   103    1
    65    48   104    1
    66    49   105    1
    67    49   106    1
    68    49   107    1
    69    50   108    1
    70    51    59    1
    71    52   109    1
    72    52   110    1
    73    52   111    1
    74    53    54    1
    75    54    55    2
    76    54    56    1
    77    56   112    1
    78    56   113    1
    79    56   114    1
    80    57   115    1
    81    57   116    1
    82    57   117    1
    83    58   118    1
    84    58   119    1
    85    58   120    1
    86    59   121    1
    87    59   122    1
    88    59   123    1
    89    60    61    2
    90     1    47    1
    91     1    62    1
    92     2    63    1
    93     3    64    1
    94     4    65    1
    95     5     6    1
    96     7     8    2
    97     9    78    1
    98    15    79    1
    99    18    80    1
   100    18    81    1
   101    19    82    1
   102    19    83    1
   103    20    23    1
   104    21    84    1
   105    21    85    1
   106    22    86    1
   107    22    87    1
   108    27    45    1
   109    28    34    1
   110    32    58    1
   111    33    46    2
   112    36    51    1
   113    36    66    1
   114    37    52    1
   115    37    67    1
   116    38    53    1
   117    38    68    1
   118    42    48    1
   119    42    72    1
   120    43    44    2
   121    60    73    1
   122    61    74    1
   123    39    69    1
   124    39    57    1
   125    40    70    1
   126    40    50    1
   127    41    71    1
   128    41    49    1
