@<TRIPOS>MOLECULE
*****
 123 128 0 0 0
SMALL
GASTEIGER

@<TRIPOS>ATOM
     1 C         -0.370669   0.184967   -5.462613 C.3        1 UNL1     0.0009
     2 C         -0.482898   1.276994   -6.956574 C.2        1 UNL1     -0.0787
     3 C         -1.266297   1.888896   -8.009146 C.2        1 UNL1     -0.0649
     4 C         -0.760242   3.028046   -9.154834 C.2        1 UNL1     -0.0542
     5 C         -1.185568   4.024644   -10.067505 C.2        1 UNL1     0.0115
     6 C         -2.429659   4.645339   -10.760542 C.3        1 UNL1     -0.0348
     7 C         -0.116113   5.095848   -10.602085 C.2        1 UNL1     0.2441
     8 O         0.396407   5.028059   -11.710803 O.2        1 UNL1     -0.2702
     9 N         -0.003514   6.257284   -9.81816 N.am        1 UNL1     -0.2772
     10 C         0.923982   6.073816   -8.818453 C.2        1 UNL1     0.1049
     11 C         0.493828   5.46039   -7.730842 C.2        1 UNL1     0.0801
     12 C         3.254303   5.267339   -8.3983 C.ar        1 UNL1     0.0753
     13 C         2.701884   4.456026   -7.356564 C.ar        1 UNL1     0.0305
     14 C         1.323119   4.626378   -6.903752 C.2        1 UNL1     0.0924
     15 N         -0.759029   5.165063   -7.343984 N.pl3        1 UNL1     -0.3170
     16 C         -0.694633   4.649894   -6.002079 C.3        1 UNL1     0.1275
     17 N         0.681603   4.039376   -5.897366 N.2        1 UNL1     -0.2557
     18 C         -0.699549   5.847727   -5.057159 C.3        1 UNL1     0.0016
     19 C         -1.930832   6.691097   -5.347434 C.3        1 UNL1     0.0026
     20 N         -3.117137   5.868165   -5.156402 N.3        1 UNL1     -0.3018
     21 C         -3.173315   4.657928   -5.978923 C.3        1 UNL1     0.0026
     22 C         -1.929547   3.823555   -5.667864 C.3        1 UNL1     0.0016
     23 C         -4.340759   6.643812   -5.114425 C.3        1 UNL1     0.0012
     24 C         -4.149595   7.905484   -4.258038 C.3        1 UNL1     -0.0339
     25 C         -4.736132   9.147884   -4.948307 C.3        1 UNL1     -0.0615
     26 C         -4.751594   7.695362   -2.879551 C.3        1 UNL1     -0.0615
     27 C         4.601573   5.182577   -8.741518 C.ar        1 UNL1     0.1347
     28 C         5.499332   4.355724   -8.090063 C.ar        1 UNL1     0.0342
     29 C         4.92298   3.530832   -7.100853 C.ar        1 UNL1     0.1435
     30 C         3.567953   3.578801   -6.770975 C.ar        1 UNL1     0.0774
     31 O         5.684075   2.750676   -6.302669 O.3        1 UNL1     -0.4436
     32 C         4.846   2.459866   -5.173983 C.3        1 UNL1     0.3143
     33 C         3.427924   2.641294   -5.676334 C.2        1 UNL1     0.2504
     34 C         6.99557   4.393818   -8.231196 C.3        1 UNL1     -0.0327
     35 O         5.006609   1.068494   -4.871426 O.2        1 UNL1     -0.4528
     36 C         4.455268   0.746783   -1.129687 C.3        1 UNL1     0.0854
     37 C         3.201892   1.163626   -0.26782 C.3        1 UNL1     0.0236
     38 C         2.576268   -0.010822   0.627173 C.3        1 UNL1     0.1131
     39 C         2.23096   -1.404631   -0.036398 C.3        1 UNL1     0.0200
     40 C         1.475583   -1.468973   -1.522233 C.3        1 UNL1     0.0661
     41 C         0.079325   -0.613367   -1.964965 C.3        1 UNL1     0.0091
     42 C         -0.436257   0.063666   -3.590143 C.3        1 UNL1     0.0661
     43 C         2.364754   6.266427   -9.040782 C.2        1 UNL1     0.2131
     44 O         2.77302   7.25065   -9.630156 O.2        1 UNL1     -0.2851
     45 O         5.049291   5.973804   -9.797428 O.3        1 UNL1     -0.5056
     46 O         2.413879   2.113678   -5.277351 O.2        1 UNL1     -0.2836
     47 C         -0.458759   -1.308178   -5.878232 C.3        1 UNL1     -0.0566
     48 O         -1.812933   -0.48153   -3.508645 O.3        1 UNL1     -0.3909
     49 C         -0.179483   0.464327   -0.935845 C.3        1 UNL1     -0.0577
     50 O         2.423996   -1.420908   -2.569097 O.3        1 UNL1     -0.3910
     51 O         4.762571   -0.628996   -1.144742 O.3        1 UNL1     -0.3753
     52 C         2.30738   2.209651   -1.009863 C.3        1 UNL1     -0.0564
     53 O         1.629813   0.478683   1.684025 O.3        1 UNL1     -0.4608
     54 C         0.480394   -0.155346   2.077439 C.2        1 UNL1     0.3042
     55 O         0.238749   -1.36084   2.03021 O.2        1 UNL1     -0.2512
     56 C         -0.541478   0.768821   2.676109 C.3        1 UNL1     0.0332
     57 C         3.476509   -2.377492   0.209213 C.3        1 UNL1     -0.0567
     58 C         5.143618   3.548074   -4.11627 C.3        1 UNL1     0.0210
     59 C         5.928793   -0.990775   -0.406562 C.3        1 UNL1     0.0372
     60 C         4.419568   1.194179   -2.548744 C.2        1 UNL1     -0.0208
     61 C         4.711333   0.534686   -3.670656 C.2        1 UNL1     0.0882
     62 H         0.696466   0.427032   -5.38954 H        1 UNL1     0.0365
     63 H         0.56942   1.528437   -7.104473 H        1 UNL1     0.0576
     64 H         -2.352117   1.778375   -8.05259 H        1 UNL1     0.0615
     65 H         0.330518   3.002418   -9.08363 H        1 UNL1     0.0622
     66 H         5.297969   1.279459   -0.666916 H        1 UNL1     0.0645
     67 H         3.618818   1.831107   0.506261 H        1 UNL1     0.0362
     68 H         3.429499   -0.208462   1.293848 H        1 UNL1     0.0741
     69 H         1.538312   -1.933293   0.604822 H        1 UNL1     0.0359
     70 H         1.126433   -2.519247   -1.51332 H        1 UNL1     0.0600
     71 H         -0.696237   -1.358169   -1.699011 H        1 UNL1     0.0348
     72 H         0.328542   -0.696181   -3.807007 H        1 UNL1     0.0602
     73 H         4.229517   2.238249   -2.581096 H        1 UNL1     0.0628
     74 H         4.861125   -0.543825   -3.730775 H        1 UNL1     0.1022
     75 H         -3.265541   4.766704   -10.030059 H        1 UNL1     0.0279
     76 H         -2.313831   5.652921   -11.153521 H        1 UNL1     0.0279
     77 H         -2.884781   3.971028   -11.500723 H        1 UNL1     0.0279
     78 H         -0.897061   6.458069   -9.373935 H        1 UNL1     0.1553
     79 H         -1.576802   5.611882   -7.716183 H        1 UNL1     0.1484
     80 H         -0.696645   5.486305   -4.021721 H        1 UNL1     0.0317
     81 H         0.20781   6.448355   -5.182042 H        1 UNL1     0.0317
     82 H         -1.903205   7.116372   -6.36148 H        1 UNL1     0.0428
     83 H         -1.913588   7.540555   -4.663933 H        1 UNL1     0.0428
     84 H         -4.033397   4.01778   -5.759196 H        1 UNL1     0.0428
     85 H         -3.282219   4.893944   -7.046515 H        1 UNL1     0.0428
     86 H         -2.069786   2.891528   -6.183273 H        1 UNL1     0.0317
     87 H         -1.929121   3.531365   -4.610641 H        1 UNL1     0.0317
     88 H         -4.585706   6.951055   -6.139558 H        1 UNL1     0.0429
     89 H         -5.182502   6.041285   -4.749454 H        1 UNL1     0.0429
     90 H         -3.077877   8.069915   -4.094954 H        1 UNL1     0.0308
     91 H         -5.588433   8.885526   -5.582226 H        1 UNL1     0.0233
     92 H         -5.053213   9.887053   -4.208917 H        1 UNL1     0.0233
     93 H         -4.004949   9.652702   -5.591243 H        1 UNL1     0.0233
     94 H         -4.740005   8.634119   -2.315249 H        1 UNL1     0.0233
     95 H         -5.791669   7.370211   -2.971655 H        1 UNL1     0.0233
     96 H         -4.195813   6.943943   -2.311708 H        1 UNL1     0.0233
     97 H         7.33224   3.897092   -9.136263 H        1 UNL1     0.0280
     98 H         7.379564   5.420559   -8.291279 H        1 UNL1     0.0280
     99 H         7.460639   3.890884   -7.367562 H        1 UNL1     0.0280
     100 H         5.820298   5.650477   -10.229436 H        1 UNL1     0.2922
     101 H         0.530414   -1.762784   -5.827971 H        1 UNL1     0.0236
     102 H         -0.927664   -1.455529   -6.850549 H        1 UNL1     0.0236
     103 H         -1.073534   -1.89751   -5.177566 H        1 UNL1     0.0236
     104 H         -1.755863   -1.366569   -3.098256 H        1 UNL1     0.2098
     105 H         0.479651   1.325476   -1.011848 H        1 UNL1     0.0234
     106 H         -1.217863   0.788295   -0.867008 H        1 UNL1     0.0234
     107 H         0.0   0.0   0.0 H        1 UNL1     0.0234
     108 H         1.93639   -1.231624   -3.393828 H        1 UNL1     0.2098
     109 H         2.850284   3.139376   -1.230268 H        1 UNL1     0.0234
     110 H         1.861604   1.818534   -1.930762 H        1 UNL1     0.0234
     111 H         1.443096   2.507278   -0.401276 H        1 UNL1     0.0234
     112 H         -1.422144   0.198615   2.986974 H        1 UNL1     0.0342
     113 H         -0.135992   1.345007   3.506431 H        1 UNL1     0.0342
     114 H         -0.857267   1.47989   1.900337 H        1 UNL1     0.0342
     115 H         3.160502   -3.422679   0.331325 H        1 UNL1     0.0234
     116 H         4.223945   -2.35123   -0.58621 H        1 UNL1     0.0234
     117 H         3.99288   -2.197608   1.16783 H        1 UNL1     0.0234
     118 H         5.668224   3.137837   -3.235645 H        1 UNL1     0.0309
     119 H         5.718449   4.389639   -4.515696 H        1 UNL1     0.0309
     120 H         4.231807   3.979348   -3.688826 H        1 UNL1     0.0309
     121 H         5.9222   -2.074144   -0.289836 H        1 UNL1     0.0524
     122 H         6.858544   -0.719338   -0.933745 H        1 UNL1     0.0524
     123 H         5.92192   -0.508832   0.566976 H        1 UNL1     0.0524
@<TRIPOS>BOND
     1     1     2    1
     2     1    42    1
     3     2     3    2
     4     3     4    1
     5     4     5    2
     6     5     7    1
     7     6    75    1
     8     6    76    1
     9     6    77    1
    10     7     9   am
    11     9    10    1
    12    10    11    2
    13    10    43    1
    14    11    14    1
    15    11    15    1
    16    12    13   ar
    17    12    27   ar
    18    12    43    1
    19    13    14    1
    20    13    30   ar
    21    14    17    2
    22    15    16    1
    23    16    17    1
    24    16    18    1
    25    16    22    1
    26    18    19    1
    27    19    20    1
    28    20    21    1
    29    21    22    1
    30    23    24    1
    31    23    88    1
    32    23    89    1
    33    24    25    1
    34    24    26    1
    35    24    90    1
    36    25    91    1
    37    25    92    1
    38    25    93    1
    39    26    94    1
    40    26    95    1
    41    26    96    1
    42    27    28   ar
    43    28    29   ar
    44    29    30   ar
    45    29    31    1
    46    30    33    1
    47    31    32    1
    48    32    33    1
    49    32    35    1
    50    34    97    1
    51    34    98    1
    52    34    99    1
    53    35    61    1
    54    36    37    1
    55    36    60    1
    56    37    38    1
    57    38    39    1
    58    39    40    1
    59    40    41    1
    60    41    42    1
    61    45   100    1
    62    47   101    1
    63    47   102    1
    64    47   103    1
    65    48   104    1
    66    49   105    1
    67    49   106    1
    68    49   107    1
    69    50   108    1
    70    51    59    1
    71    52   109    1
    72    52   110    1
    73    52   111    1
    74    53    54    1
    75    54    55    2
    76    54    56    1
    77    56   112    1
    78    56   113    1
    79    56   114    1
    80    57   115    1
    81    57   116    1
    82    57   117    1
    83    58   118    1
    84    58   119    1
    85    58   120    1
    86    59   121    1
    87    59   122    1
    88    59   123    1
    89    60    61    2
    90     1    47    1
    91     1    62    1
    92     2    63    1
    93     3    64    1
    94     4    65    1
    95     5     6    1
    96     7     8    2
    97     9    78    1
    98    15    79    1
    99    18    80    1
   100    18    81    1
   101    19    82    1
   102    19    83    1
   103    20    23    1
   104    21    84    1
   105    21    85    1
   106    22    86    1
   107    22    87    1
   108    27    45    1
   109    28    34    1
   110    32    58    1
   111    33    46    2
   112    36    51    1
   113    36    66    1
   114    37    52    1
   115    37    67    1
   116    38    53    1
   117    38    68    1
   118    42    48    1
   119    42    72    1
   120    43    44    2
   121    60    73    1
   122    61    74    1
   123    39    69    1
   124    39    57    1
   125    40    70    1
   126    40    50    1
   127    41    71    1
   128    41    49    1
