@<TRIPOS>MOLECULE
*****
 123 128 0 0 0
SMALL
GASTEIGER

@<TRIPOS>ATOM
     1 C         0.855792   2.794621   4.633516 C.3        1 UNL1     0.0009
     2 C         2.039695   3.85267   5.590564 C.2        1 UNL1     -0.0787
     3 C         3.018011   4.003169   6.647112 C.2        1 UNL1     -0.0649
     4 C         3.95839   5.363865   7.008432 C.2        1 UNL1     -0.0542
     5 C         5.126199   5.827632   7.662818 C.2        1 UNL1     0.0115
     6 C         6.264999   5.422001   8.638482 C.3        1 UNL1     -0.0348
     7 C         5.715144   7.268991   7.272156 C.2        1 UNL1     0.2441
     8 O         5.553585   8.263975   7.965288 O.2        1 UNL1     -0.2702
     9 N         6.646569   7.259011   6.219304 N.am        1 UNL1     -0.2772
     10 C         6.003635   7.374533   5.008266 C.2        1 UNL1     0.1049
     11 C         5.515272   6.257803   4.499701 C.2        1 UNL1     0.0801
     12 C         4.280124   8.724679   3.79833 C.ar        1 UNL1     0.0753
     13 C         3.666476   7.480625   3.445663 C.ar        1 UNL1     0.0305
     14 C         4.338769   6.203706   3.674904 C.2        1 UNL1     0.0924
     15 N         5.719965   4.980517   4.864623 N.pl3        1 UNL1     -0.3170
     16 C         5.094181   4.136908   3.881275 C.3        1 UNL1     0.1275
     17 N         3.96855   4.974874   3.325853 N.2        1 UNL1     -0.2557
     18 C         6.090741   3.95655   2.740205 C.3        1 UNL1     0.0016
     19 C         7.38689   3.40212   3.309586 C.3        1 UNL1     0.0026
     20 N         7.104726   2.132246   3.964439 N.3        1 UNL1     -0.3018
     21 C         6.109788   2.193471   5.037154 C.3        1 UNL1     0.0026
     22 C         4.814673   2.748718   4.441945 C.3        1 UNL1     0.0016
     23 C         8.303627   1.379845   4.276165 C.3        1 UNL1     0.0012
     24 C         8.953898   0.845698   2.990245 C.3        1 UNL1     -0.0339
     25 C         10.385572   1.37998   2.820214 C.3        1 UNL1     -0.0615
     26 C         8.9191   -0.672683   2.980973 C.3        1 UNL1     -0.0615
     27 C         3.687602   9.941085   3.467583 C.ar        1 UNL1     0.1347
     28 C         2.50694   10.03988   2.753211 C.ar        1 UNL1     0.0342
     29 C         1.895883   8.802357   2.459423 C.ar        1 UNL1     0.1435
     30 C         2.459477   7.576624   2.816018 C.ar        1 UNL1     0.0774
     31 O         0.798915   8.726742   1.674599 O.3        1 UNL1     -0.4436
     32 C         0.765704   7.362744   1.228191 C.3        1 UNL1     0.3143
     33 C         1.557934   6.588193   2.261949 C.2        1 UNL1     0.2504
     34 C         1.945355   11.296014   2.147531 C.3        1 UNL1     -0.0327
     35 O         -0.592606   6.916401   1.323183 O.2        1 UNL1     -0.4528
     36 C         -1.027528   4.317631   -1.409091 C.3        1 UNL1     0.0854
     37 C         -0.222785   2.983129   -1.652021 C.3        1 UNL1     0.0236
     38 C         -1.121825   1.658004   -1.738721 C.3        1 UNL1     0.1131
     39 C         -2.181149   1.352322   -0.60441 C.3        1 UNL1     0.0200
     40 C         -1.785586   1.568754   1.001555 C.3        1 UNL1     0.0661
     41 C         -0.396086   0.97379   1.771567 C.3        1 UNL1     0.0091
     42 C         0.588427   1.669652   3.154286 C.3        1 UNL1     0.0661
     43 C         5.612914   8.677291   4.449239 C.2        1 UNL1     0.2131
     44 O         6.397856   9.608194   4.44427 O.2        1 UNL1     -0.2851
     45 O         4.327098   11.105525   3.887778 O.3        1 UNL1     -0.5056
     46 O         1.453194   5.423003   2.573742 O.2        1 UNL1     -0.2836
     47 C         -0.422944   2.523161   5.470848 C.3        1 UNL1     -0.0566
     48 O         0.646774   0.392676   3.90598 O.3        1 UNL1     -0.3909
     49 C         0.586653   0.513874   0.717908 C.3        1 UNL1     -0.0577
     50 O         -2.025768   2.902967   1.401443 O.3        1 UNL1     -0.3910
     51 O         -2.400285   4.166381   -1.12608 O.3        1 UNL1     -0.3753
     52 C         1.164421   3.000716   -0.930705 C.3        1 UNL1     -0.0564
     53 O         -0.395413   0.475777   -2.310552 O.3        1 UNL1     -0.4608
     54 C         -0.541014   -0.822772   -1.897634 C.2        1 UNL1     0.3042
     55 O         0.351826   -1.63214   -1.649444 O.2        1 UNL1     -0.2512
     56 C         -1.971669   -1.230621   -1.688828 C.3        1 UNL1     0.0332
     57 C         -3.596279   1.905072   -1.10446 C.3        1 UNL1     -0.0567
     58 C         1.528316   7.323932   -0.116594 C.3        1 UNL1     0.0210
     59 C         -3.276726   4.561385   -2.180446 C.3        1 UNL1     0.0372
     60 C         -0.467389   5.206744   -0.355108 C.2        1 UNL1     -0.0208
     61 C         -1.0748   5.86519   0.632944 C.2        1 UNL1     0.0882
     62 H         0.633276   3.656507   3.992929 H        1 UNL1     0.0365
     63 H         1.853447   4.828292   5.136752 H        1 UNL1     0.0576
     64 H         3.364649   3.148451   7.232266 H        1 UNL1     0.0615
     65 H         3.483413   6.167528   6.439218 H        1 UNL1     0.0622
     66 H         -0.933012   4.872675   -2.353039 H        1 UNL1     0.0645
     67 H         0.137113   3.072587   -2.691747 H        1 UNL1     0.0362
     68 H         -1.714624   1.896226   -2.635025 H        1 UNL1     0.0741
     69 H         -2.441677   0.303095   -0.645121 H        1 UNL1     0.0359
     70 H         -2.597556   0.986754   1.478043 H        1 UNL1     0.0600
     71 H         -0.782149   0.005336   2.145745 H        1 UNL1     0.0348
     72 H         -0.391877   2.165845   3.200228 H        1 UNL1     0.0602
     73 H         0.561092   5.379466   -0.554214 H        1 UNL1     0.0628
     74 H         -2.109046   5.702371   0.938006 H        1 UNL1     0.1022
     75 H         5.847099   4.903384   9.534825 H        1 UNL1     0.0279
     76 H         6.988534   4.700159   8.266311 H        1 UNL1     0.0279
     77 H         6.758392   6.289671   9.100448 H        1 UNL1     0.0279
     78 H         7.149505   6.37407   6.215935 H        1 UNL1     0.1553
     79 H         6.495578   4.678916   5.42533 H        1 UNL1     0.1484
     80 H         5.659714   3.279596   1.992732 H        1 UNL1     0.0317
     81 H         6.278326   4.907695   2.230513 H        1 UNL1     0.0317
     82 H         7.861334   4.109547   4.005548 H        1 UNL1     0.0428
     83 H         8.083846   3.282951   2.479464 H        1 UNL1     0.0428
     84 H         5.857731   1.215117   5.45799 H        1 UNL1     0.0428
     85 H         6.473348   2.769207   5.899517 H        1 UNL1     0.0428
     86 H         4.076392   2.654776   5.216609 H        1 UNL1     0.0317
     87 H         4.445365   2.077839   3.656688 H        1 UNL1     0.0317
     88 H         9.012426   2.056475   4.771211 H        1 UNL1     0.0429
     89 H         8.091302   0.565169   4.980435 H        1 UNL1     0.0429
     90 H         8.357504   1.164242   2.127079 H        1 UNL1     0.0308
     91 H         10.560466   2.256662   3.451041 H        1 UNL1     0.0233
     92 H         11.117931   0.608039   3.067935 H        1 UNL1     0.0233
     93 H         10.598287   1.683304   1.787943 H        1 UNL1     0.0233
     94 H         9.705401   -1.072475   3.630383 H        1 UNL1     0.0233
     95 H         7.956347   -1.026675   3.360127 H        1 UNL1     0.0233
     96 H         9.068788   -1.069115   1.972805 H        1 UNL1     0.0233
     97 H         1.578945   11.984286   2.903346 H        1 UNL1     0.0280
     98 H         2.699015   11.852057   1.574758 H        1 UNL1     0.0280
     99 H         1.107932   11.040396   1.477847 H        1 UNL1     0.0280
     100 H         4.573925   11.110763   4.795892 H        1 UNL1     0.2922
     101 H         -1.2438   3.134951   5.097264 H        1 UNL1     0.0236
     102 H         -0.26992   2.653786   6.541598 H        1 UNL1     0.0236
     103 H         -0.776307   1.484163   5.36217 H        1 UNL1     0.0236
     104 H         -0.220265   -0.047287   3.807755 H        1 UNL1     0.2098
     105 H         1.107142   1.319936   0.206864 H        1 UNL1     0.0234
     106 H         1.29735   -0.240045   1.056203 H        1 UNL1     0.0234
     107 H         0.0   -0.0   0.0 H        1 UNL1     0.0234
     108 H         -1.574094   3.035112   2.257186 H        1 UNL1     0.2098
     109 H         1.808742   3.816137   -1.287988 H        1 UNL1     0.0234
     110 H         1.081597   3.050395   0.160357 H        1 UNL1     0.0234
     111 H         1.727189   2.075529   -1.113099 H        1 UNL1     0.0234
     112 H         -2.016676   -2.270193   -1.350289 H        1 UNL1     0.0342
     113 H         -2.488393   -0.570621   -0.993673 H        1 UNL1     0.0342
     114 H         -2.490722   -1.168365   -2.655198 H        1 UNL1     0.0342
     115 H         -4.428267   1.287605   -0.738785 H        1 UNL1     0.0234
     116 H         -3.799019   2.936764   -0.810252 H        1 UNL1     0.0234
     117 H         -3.737702   1.828225   -2.196264 H        1 UNL1     0.0234
     118 H         1.3446   8.227678   -0.723634 H        1 UNL1     0.0309
     119 H         2.607563   7.187665   0.00531 H        1 UNL1     0.0309
     120 H         1.191481   6.509702   -0.7675 H        1 UNL1     0.0309
     121 H         -3.471631   5.627267   -2.065273 H        1 UNL1     0.0524
     122 H         -2.827265   4.411802   -3.176261 H        1 UNL1     0.0524
     123 H         -4.206494   4.002257   -2.12567 H        1 UNL1     0.0524
@<TRIPOS>BOND
     1     1     2    1
     2     1    42    1
     3     2     3    2
     4     3     4    1
     5     4     5    2
     6     5     7    1
     7     6    75    1
     8     6    76    1
     9     6    77    1
    10     7     9   am
    11     9    10    1
    12    10    11    2
    13    10    43    1
    14    11    14    1
    15    11    15    1
    16    12    13   ar
    17    12    27   ar
    18    12    43    1
    19    13    14    1
    20    13    30   ar
    21    14    17    2
    22    15    16    1
    23    16    17    1
    24    16    18    1
    25    16    22    1
    26    18    19    1
    27    19    20    1
    28    20    21    1
    29    21    22    1
    30    23    24    1
    31    23    88    1
    32    23    89    1
    33    24    25    1
    34    24    26    1
    35    24    90    1
    36    25    91    1
    37    25    92    1
    38    25    93    1
    39    26    94    1
    40    26    95    1
    41    26    96    1
    42    27    28   ar
    43    28    29   ar
    44    29    30   ar
    45    29    31    1
    46    30    33    1
    47    31    32    1
    48    32    33    1
    49    32    35    1
    50    34    97    1
    51    34    98    1
    52    34    99    1
    53    35    61    1
    54    36    37    1
    55    36    60    1
    56    37    38    1
    57    38    39    1
    58    39    40    1
    59    40    41    1
    60    41    42    1
    61    45   100    1
    62    47   101    1
    63    47   102    1
    64    47   103    1
    65    48   104    1
    66    49   105    1
    67    49   106    1
    68    49   107    1
    69    50   108    1
    70    51    59    1
    71    52   109    1
    72    52   110    1
    73    52   111    1
    74    53    54    1
    75    54    55    2
    76    54    56    1
    77    56   112    1
    78    56   113    1
    79    56   114    1
    80    57   115    1
    81    57   116    1
    82    57   117    1
    83    58   118    1
    84    58   119    1
    85    58   120    1
    86    59   121    1
    87    59   122    1
    88    59   123    1
    89    60    61    2
    90     1    47    1
    91     1    62    1
    92     2    63    1
    93     3    64    1
    94     4    65    1
    95     5     6    1
    96     7     8    2
    97     9    78    1
    98    15    79    1
    99    18    80    1
   100    18    81    1
   101    19    82    1
   102    19    83    1
   103    20    23    1
   104    21    84    1
   105    21    85    1
   106    22    86    1
   107    22    87    1
   108    27    45    1
   109    28    34    1
   110    32    58    1
   111    33    46    2
   112    36    51    1
   113    36    66    1
   114    37    52    1
   115    37    67    1
   116    38    53    1
   117    38    68    1
   118    42    48    1
   119    42    72    1
   120    43    44    2
   121    60    73    1
   122    61    74    1
   123    39    69    1
   124    39    57    1
   125    40    70    1
   126    40    50    1
   127    41    71    1
   128    41    49    1
