@<TRIPOS>MOLECULE
*****
 123 128 0 0 0
SMALL
GASTEIGER

@<TRIPOS>ATOM
     1 C         5.167858   1.744448   0.499731 C.3        1 UNL1     0.0009
     2 C         6.606353   2.549961   -0.348158 C.2        1 UNL1     -0.0787
     3 C         7.889166   2.451205   -1.011999 C.2        1 UNL1     -0.0649
     4 C         8.768562   3.686063   -1.765754 C.2        1 UNL1     -0.0542
     5 C         9.79019   3.978423   -2.702706 C.2        1 UNL1     0.0115
     6 C         10.919276   3.352594   -3.566897 C.3        1 UNL1     -0.0348
     7 C         9.887418   5.461868   -3.308452 C.2        1 UNL1     0.2441
     8 O         10.711275   6.282815   -2.9292 O.2        1 UNL1     -0.2702
     9 N         9.139093   5.669814   -4.480168 N.am        1 UNL1     -0.2772
     10 C         7.856163   6.057211   -4.168181 C.2        1 UNL1     0.1049
     11 C         7.0093   5.086236   -3.877921 C.2        1 UNL1     0.0801
     12 C         6.556712   7.664135   -2.758729 C.ar        1 UNL1     0.0753
     13 C         5.796239   6.536536   -2.312849 C.ar        1 UNL1     0.0305
     14 C         5.91328   5.231025   -2.9586 C.2        1 UNL1     0.0924
     15 N         7.131283   3.757243   -4.037377 N.pl3        1 UNL1     -0.3170
     16 C         5.860558   3.158782   -3.725357 C.3        1 UNL1     0.1275
     17 N         5.223316   4.114031   -2.745998 N.2        1 UNL1     -0.2557
     18 C         5.009649   3.218937   -4.990283 C.3        1 UNL1     0.0016
     19 C         5.765774   2.534813   -6.118041 C.3        1 UNL1     0.0026
     20 N         6.034427   1.156374   -5.732348 N.3        1 UNL1     -0.3018
     21 C         6.795815   0.994965   -4.491943 C.3        1 UNL1     0.0026
     22 C         6.015841   1.685535   -3.371832 C.3        1 UNL1     0.0016
     23 C         6.48006   0.337002   -6.84171 C.3        1 UNL1     0.0012
     24 C         5.324811   0.085056   -7.823381 C.3        1 UNL1     -0.0339
     25 C         5.343291   1.093107   -8.98422 C.3        1 UNL1     -0.0615
     26 C         5.37163   -1.347368   -8.326123 C.3        1 UNL1     -0.0615
     27 C         6.352077   8.931741   -2.218898 C.ar        1 UNL1     0.1347
     28 C         5.391756   9.201527   -1.260227 C.ar        1 UNL1     0.0342
     29 C         4.688756   8.067351   -0.801317 C.ar        1 UNL1     0.1435
     30 C         4.908112   6.785387   -1.306957 C.ar        1 UNL1     0.0774
     31 O         3.64656   8.181254   0.050658 O.3        1 UNL1     -0.4436
     32 C         2.924283   6.948969   -0.093092 C.3        1 UNL1     0.3143
     33 C         3.937722   5.955413   -0.62413 C.2        1 UNL1     0.2504
     34 C         4.945158   10.567745   -0.819661 C.3        1 UNL1     -0.0327
     35 O         2.561387   6.511969   1.222427 O.2        1 UNL1     -0.4528
     36 C         -0.682335   4.582086   0.820048 C.3        1 UNL1     0.0854
     37 C         -0.987129   3.322069   -0.078273 C.3        1 UNL1     0.0236
     38 C         -1.589694   2.061102   0.708251 C.3        1 UNL1     0.1131
     39 C         -0.866234   1.52916   2.010523 C.3        1 UNL1     0.0200
     40 C         0.794798   1.382501   2.054115 C.3        1 UNL1     0.0661
     41 C         1.755406   0.613511   0.886426 C.3        1 UNL1     0.0091
     42 C         3.464074   0.975169   0.325121 C.3        1 UNL1     0.0661
     43 C         7.508291   7.456259   -3.878347 C.2        1 UNL1     0.2131
     44 O         7.90984   8.354363   -4.595916 O.2        1 UNL1     -0.2851
     45 O         7.165711   9.966497   -2.675755 O.3        1 UNL1     -0.5056
     46 O         3.952721   4.751816   -0.493815 O.2        1 UNL1     -0.2836
     47 C         5.561788   1.314131   1.938351 C.3        1 UNL1     -0.0566
     48 O         3.911582   -0.436265   0.407009 O.3        1 UNL1     -0.3909
     49 C         0.922918   0.38197   -0.354882 C.3        1 UNL1     -0.0577
     50 O         1.395214   2.599809   2.448305 O.3        1 UNL1     -0.3910
     51 O         -0.808625   4.391937   2.211208 O.3        1 UNL1     -0.3753
     52 C         0.058938   3.161368   -1.229302 C.3        1 UNL1     -0.0564
     53 O         -2.191641   1.022877   -0.192902 O.3        1 UNL1     -0.4608
     54 C         -2.414923   -0.287203   0.141413 C.2        1 UNL1     0.3042
     55 O         -1.842634   -1.28019   -0.306136 O.2        1 UNL1     -0.2512
     56 C         -3.445699   -0.465464   1.219577 C.3        1 UNL1     0.0332
     57 C         -1.588699   2.198129   3.270959 C.3        1 UNL1     -0.0567
     58 C         1.850868   7.195203   -1.178761 C.3        1 UNL1     0.0210
     59 C         -1.160769   5.562806   2.946684 C.3        1 UNL1     0.0372
     60 C         0.647419   5.210381   0.591663 C.2        1 UNL1     -0.0208
     61 C         1.559346   5.644664   1.4626 C.2        1 UNL1     0.0882
     62 H         4.69246   2.728901   0.586681 H        1 UNL1     0.0365
     63 H         6.340648   3.603895   -0.242832 H        1 UNL1     0.0576
     64 H         8.346508   1.484139   -1.232749 H        1 UNL1     0.0615
     65 H         8.281571   4.601645   -1.419298 H        1 UNL1     0.0622
     66 H         -1.426028   5.329231   0.509013 H        1 UNL1     0.0645
     67 H         -1.851561   3.63225   -0.690731 H        1 UNL1     0.0362
     68 H         -2.536997   2.498468   1.058752 H        1 UNL1     0.0741
     69 H         -1.198718   0.518205   2.205032 H        1 UNL1     0.0359
     70 H         0.904825   0.72175   2.935229 H        1 UNL1     0.0600
     71 H         1.797677   -0.40785   1.313029 H        1 UNL1     0.0348
     72 H         3.35706   1.463059   1.304829 H        1 UNL1     0.0602
     73 H         0.766986   5.407959   -0.444636 H        1 UNL1     0.0628
     74 H         1.540071   5.433592   2.532327 H        1 UNL1     0.1022
     75 H         10.962796   2.247226   -3.414248 H        1 UNL1     0.0279
     76 H         10.807301   3.435881   -4.645597 H        1 UNL1     0.0279
     77 H         11.924067   3.656502   -3.238665 H        1 UNL1     0.0279
     78 H         9.077295   4.800112   -5.005408 H        1 UNL1     0.1553
     79 H         7.797185   3.329052   -4.653947 H        1 UNL1     0.1484
     80 H         4.047755   2.728567   -4.797767 H        1 UNL1     0.0317
     81 H         4.784132   4.255946   -5.261216 H        1 UNL1     0.0317
     82 H         6.697157   3.065593   -6.364438 H        1 UNL1     0.0428
     83 H         5.141982   2.59072   -7.010683 H        1 UNL1     0.0428
     84 H         6.914983   -0.048188   -4.183003 H        1 UNL1     0.0428
     85 H         7.826305   1.362353   -4.594089 H        1 UNL1     0.0428
     86 H         6.53075   1.434475   -2.463083 H        1 UNL1     0.0317
     87 H         5.035895   1.208501   -3.248382 H        1 UNL1     0.0317
     88 H         7.275078   0.879847   -7.369498 H        1 UNL1     0.0429
     89 H         6.914335   -0.607847   -6.490369 H        1 UNL1     0.0429
     90 H         4.372039   0.184262   -7.289904 H        1 UNL1     0.0308
     91 H         6.291169   1.054635   -9.529335 H        1 UNL1     0.0233
     92 H         4.52231   0.898193   -9.6782 H        1 UNL1     0.0233
     93 H         5.215106   2.12703   -8.641572 H        1 UNL1     0.0233
     94 H         4.674746   -1.477557   -9.161133 H        1 UNL1     0.0233
     95 H         6.376802   -1.584434   -8.685831 H        1 UNL1     0.0233
     96 H         5.10258   -2.055958   -7.537783 H        1 UNL1     0.0233
     97 H         4.15069   10.518207   -0.081016 H        1 UNL1     0.0280
     98 H         5.757591   11.137067   -0.349468 H        1 UNL1     0.0280
     99 H         4.573145   11.132862   -1.689916 H        1 UNL1     0.0280
     100 H         6.699651   10.717149   -2.999687 H        1 UNL1     0.2922
     101 H         4.698343   0.879446   2.441508 H        1 UNL1     0.0236
     102 H         6.010852   2.119368   2.518799 H        1 UNL1     0.0236
     103 H         6.318648   0.512036   1.938072 H        1 UNL1     0.0236
     104 H         4.332266   -0.56213   1.280023 H        1 UNL1     0.2098
     105 H         0.712349   1.281053   -0.928574 H        1 UNL1     0.0234
     106 H         1.292337   -0.406554   -1.010386 H        1 UNL1     0.0234
     107 H         0.0   -0.0   0.0 H        1 UNL1     0.0234
     108 H         1.195734   3.259191   1.756069 H        1 UNL1     0.2098
     109 H         1.082363   3.040877   -0.847469 H        1 UNL1     0.0234
     110 H         -0.176339   2.338536   -1.912922 H        1 UNL1     0.0234
     111 H         0.086086   4.046975   -1.878078 H        1 UNL1     0.0234
     112 H         -3.572911   -1.529574   1.440556 H        1 UNL1     0.0342
     113 H         -3.197048   0.09364   2.120365 H        1 UNL1     0.0342
     114 H         -4.404631   -0.082478   0.844161 H        1 UNL1     0.0342
     115 H         -2.653114   1.930386   3.321195 H        1 UNL1     0.0234
     116 H         -1.138751   1.93692   4.230837 H        1 UNL1     0.0234
     117 H         -1.648351   3.298486   3.210988 H        1 UNL1     0.0234
     118 H         0.949506   7.682547   -0.767606 H        1 UNL1     0.0309
     119 H         2.221879   7.783265   -2.024183 H        1 UNL1     0.0309
     120 H         1.462312   6.263663   -1.604629 H        1 UNL1     0.0309
     121 H         -0.361627   6.290832   2.80991 H        1 UNL1     0.0524
     122 H         -2.094233   6.02182   2.580641 H        1 UNL1     0.0524
     123 H         -1.274569   5.324672   4.000456 H        1 UNL1     0.0524
@<TRIPOS>BOND
     1     1     2    1
     2     1    42    1
     3     2     3    2
     4     3     4    1
     5     4     5    2
     6     5     7    1
     7     6    75    1
     8     6    76    1
     9     6    77    1
    10     7     9   am
    11     9    10    1
    12    10    11    2
    13    10    43    1
    14    11    14    1
    15    11    15    1
    16    12    13   ar
    17    12    27   ar
    18    12    43    1
    19    13    14    1
    20    13    30   ar
    21    14    17    2
    22    15    16    1
    23    16    17    1
    24    16    18    1
    25    16    22    1
    26    18    19    1
    27    19    20    1
    28    20    21    1
    29    21    22    1
    30    23    24    1
    31    23    88    1
    32    23    89    1
    33    24    25    1
    34    24    26    1
    35    24    90    1
    36    25    91    1
    37    25    92    1
    38    25    93    1
    39    26    94    1
    40    26    95    1
    41    26    96    1
    42    27    28   ar
    43    28    29   ar
    44    29    30   ar
    45    29    31    1
    46    30    33    1
    47    31    32    1
    48    32    33    1
    49    32    35    1
    50    34    97    1
    51    34    98    1
    52    34    99    1
    53    35    61    1
    54    36    37    1
    55    36    60    1
    56    37    38    1
    57    38    39    1
    58    39    40    1
    59    40    41    1
    60    41    42    1
    61    45   100    1
    62    47   101    1
    63    47   102    1
    64    47   103    1
    65    48   104    1
    66    49   105    1
    67    49   106    1
    68    49   107    1
    69    50   108    1
    70    51    59    1
    71    52   109    1
    72    52   110    1
    73    52   111    1
    74    53    54    1
    75    54    55    2
    76    54    56    1
    77    56   112    1
    78    56   113    1
    79    56   114    1
    80    57   115    1
    81    57   116    1
    82    57   117    1
    83    58   118    1
    84    58   119    1
    85    58   120    1
    86    59   121    1
    87    59   122    1
    88    59   123    1
    89    60    61    2
    90     1    47    1
    91     1    62    1
    92     2    63    1
    93     3    64    1
    94     4    65    1
    95     5     6    1
    96     7     8    2
    97     9    78    1
    98    15    79    1
    99    18    80    1
   100    18    81    1
   101    19    82    1
   102    19    83    1
   103    20    23    1
   104    21    84    1
   105    21    85    1
   106    22    86    1
   107    22    87    1
   108    27    45    1
   109    28    34    1
   110    32    58    1
   111    33    46    2
   112    36    51    1
   113    36    66    1
   114    37    52    1
   115    37    67    1
   116    38    53    1
   117    38    68    1
   118    42    48    1
   119    42    72    1
   120    43    44    2
   121    60    73    1
   122    61    74    1
   123    39    69    1
   124    39    57    1
   125    40    70    1
   126    40    50    1
   127    41    71    1
   128    41    49    1
