@<TRIPOS>MOLECULE
*****
 123 128 0 0 0
SMALL
GASTEIGER

@<TRIPOS>ATOM
     1 C         4.971936   2.238904   0.528117 C.3        1 UNL1     0.0009
     2 C         6.359166   3.11561   -0.334446 C.2        1 UNL1     -0.0787
     3 C         7.67143   3.093984   -0.945626 C.2        1 UNL1     -0.0649
     4 C         8.457346   4.348256   -1.767511 C.2        1 UNL1     -0.0542
     5 C         9.483186   4.667537   -2.690978 C.2        1 UNL1     0.0115
     6 C         10.701619   4.092258   -3.464152 C.3        1 UNL1     -0.0348
     7 C         9.461214   6.102024   -3.411223 C.2        1 UNL1     0.2441
     8 O         10.185833   7.027714   -3.07277 O.2        1 UNL1     -0.2702
     9 N         8.744538   6.143303   -4.619868 N.am        1 UNL1     -0.2772
     10 C         7.418576   6.424067   -4.382553 C.2        1 UNL1     0.1049
     11 C         6.658362   5.398993   -4.04267 C.2        1 UNL1     0.0801
     12 C         5.913799   7.997807   -3.151164 C.ar        1 UNL1     0.0753
     13 C         5.248304   6.83798   -2.640746 C.ar        1 UNL1     0.0305
     14 C         5.517033   5.504615   -3.174575 C.2        1 UNL1     0.0924
     15 N         6.914514   4.080405   -4.089998 N.pl3        1 UNL1     -0.3170
     16 C         5.695908   3.384383   -3.772498 C.3        1 UNL1     0.1275
     17 N         4.930114   4.344296   -2.895087 N.2        1 UNL1     -0.2557
     18 C         4.895274   3.261638   -5.06541 C.3        1 UNL1     0.0016
     19 C         5.75914   2.571051   -6.108681 C.3        1 UNL1     0.0026
     20 N         6.143779   1.260134   -5.604124 N.3        1 UNL1     -0.3018
     21 C         6.86616   1.271628   -4.330388 C.3        1 UNL1     0.0026
     22 C         5.978265   1.965647   -3.296041 C.3        1 UNL1     0.0016
     23 C         6.711178   0.405902   -6.628326 C.3        1 UNL1     0.0012
     24 C         5.627364   -0.031303   -7.626301 C.3        1 UNL1     -0.0339
     25 C         5.885616   -1.453821   -8.149564 C.3        1 UNL1     -0.0615
     26 C         4.253828   0.089259   -6.989399 C.3        1 UNL1     -0.0615
     27 C         5.565922   9.276668   -2.722661 C.ar        1 UNL1     0.1347
     28 C         4.545874   9.522834   -1.821021 C.ar        1 UNL1     0.0342
     29 C         3.93764   8.363208   -1.295204 C.ar        1 UNL1     0.1435
     30 C         4.300155   7.074211   -1.688001 C.ar        1 UNL1     0.0774
     31 O         2.85556   8.43834   -0.489932 O.3        1 UNL1     -0.4436
     32 C         2.262122   7.132897   -0.557169 C.3        1 UNL1     0.3143
     33 C         3.387524   6.207061   -0.972514 C.2        1 UNL1     0.2504
     34 C         3.951875   10.867774   -1.50733 C.3        1 UNL1     -0.0327
     35 O         1.889974   6.764931   0.776757 O.2        1 UNL1     -0.4528
     36 C         -1.133142   4.496568   0.425487 C.3        1 UNL1     0.0854
     37 C         -1.278054   3.146842   -0.377484 C.3        1 UNL1     0.0236
     38 C         -1.787473   1.896747   0.488252 C.3        1 UNL1     0.1131
     39 C         -1.069536   1.541669   1.852348 C.3        1 UNL1     0.0200
     40 C         0.594746   1.564827   1.962199 C.3        1 UNL1     0.0661
     41 C         1.671788   0.807311   0.892733 C.3        1 UNL1     0.0091
     42 C         3.358928   1.292728   0.360441 C.3        1 UNL1     0.0661
     43 C         6.925714   7.79975   -4.218432 C.2        1 UNL1     0.2131
     44 O         7.267468   8.6752   -4.992724 O.2        1 UNL1     -0.2851
     45 O         6.2937   10.348833   -3.234756 O.3        1 UNL1     -0.5056
     46 O         3.513394   5.024617   -0.744836 O.2        1 UNL1     -0.2836
     47 C         5.3468   1.962389   2.008995 C.3        1 UNL1     -0.0566
     48 O         3.936969   -0.056603   0.570896 O.3        1 UNL1     -0.3909
     49 C         0.916688   0.398851   -0.352449 C.3        1 UNL1     -0.0577
     50 O         1.058264   2.862641   2.276129 O.3        1 UNL1     -0.3910
     51 O         -1.296902   4.402876   1.822568 O.3        1 UNL1     -0.3753
     52 C         -0.175452   3.002559   -1.476755 C.3        1 UNL1     -0.0564
     53 O         -2.249209   0.737258   -0.345242 O.3        1 UNL1     -0.4608
     54 C         -1.57228   -0.442752   -0.510388 C.2        1 UNL1     0.3042
     55 O         -0.908638   -0.792933   -1.485473 O.2        1 UNL1     -0.2512
     56 C         -1.638234   -1.346671   0.687649 C.3        1 UNL1     0.0332
     57 C         -1.903855   2.230824   3.030121 C.3        1 UNL1     -0.0567
     58 C         1.21495   7.18646   -1.693872 C.3        1 UNL1     0.0210
     59 C         -1.105568   5.626054   2.531857 C.3        1 UNL1     0.0372
     60 C         0.137889   5.234523   0.190827 C.2        1 UNL1     -0.0208
     61 C         0.967459   5.823391   1.053261 C.2        1 UNL1     0.0882
     62 H         4.400538   3.174929   0.51948 H        1 UNL1     0.0365
     63 H         5.988848   4.142847   -0.323511 H        1 UNL1     0.0576
     64 H         8.22863   2.163073   -1.072276 H        1 UNL1     0.0615
     65 H         7.870525   5.234859   -1.512443 H        1 UNL1     0.0622
     66 H         -1.932264   5.139723   0.03077 H        1 UNL1     0.0645
     67 H         -2.142799   3.321207   -1.04109 H        1 UNL1     0.0362
     68 H         -2.786046   2.263454   0.770916 H        1 UNL1     0.0741
     69 H         -1.31045   0.520718   2.116976 H        1 UNL1     0.0359
     70 H         0.732181   0.98838   2.897015 H        1 UNL1     0.0600
     71 H         1.795139   -0.168739   1.401721 H        1 UNL1     0.0348
     72 H         3.165569   1.841793   1.293423 H        1 UNL1     0.0602
     73 H         0.279825   5.36234   -0.85357 H        1 UNL1     0.0628
     74 H         0.925207   5.69475   2.135344 H        1 UNL1     0.1022
     75 H         11.362547   3.510437   -2.777355 H        1 UNL1     0.0279
     76 H         10.482288   3.369181   -4.246535 H        1 UNL1     0.0279
     77 H         11.38985   4.874642   -3.816167 H        1 UNL1     0.0279
     78 H         8.788423   5.233791   -5.074776 H        1 UNL1     0.1553
     79 H         7.643162   3.674238   -4.647702 H        1 UNL1     0.1484
     80 H         3.978215   2.69434   -4.865556 H        1 UNL1     0.0317
     81 H         4.581849   4.247007   -5.426607 H        1 UNL1     0.0317
     82 H         6.644143   3.171236   -6.366481 H        1 UNL1     0.0428
     83 H         5.169657   2.49546   -7.022926 H        1 UNL1     0.0428
     84 H         7.072871   0.272521   -3.934326 H        1 UNL1     0.0428
     85 H         7.859643   1.730733   -4.428015 H        1 UNL1     0.0428
     86 H         6.47766   1.83805   -2.353538 H        1 UNL1     0.0317
     87 H         5.044771   1.404446   -3.166661 H        1 UNL1     0.0317
     88 H         7.473066   0.981744   -7.169831 H        1 UNL1     0.0429
     89 H         7.217366   -0.462684   -6.187751 H        1 UNL1     0.0429
     90 H         5.624102   0.658905   -8.478249 H        1 UNL1     0.0308
     91 H         6.136902   -2.138192   -7.333725 H        1 UNL1     0.0233
     92 H         5.010198   -1.834942   -8.6806 H        1 UNL1     0.0233
     93 H         6.716971   -1.491528   -8.863891 H        1 UNL1     0.0233
     94 H         3.538529   -0.557518   -7.508881 H        1 UNL1     0.0233
     95 H         4.297665   -0.228116   -5.943782 H        1 UNL1     0.0233
     96 H         3.883541   1.117425   -7.030985 H        1 UNL1     0.0233
     97 H         4.014681   11.104191   -0.449316 H        1 UNL1     0.0280
     98 H         4.472365   11.681803   -2.028581 H        1 UNL1     0.0280
     99 H         2.889644   10.879793   -1.801636 H        1 UNL1     0.0280
     100 H         6.214098   10.4674   -4.164932 H        1 UNL1     0.2922
     101 H         4.81797   2.659643   2.658479 H        1 UNL1     0.0236
     102 H         6.421442   1.971459   2.188009 H        1 UNL1     0.0236
     103 H         5.015066   0.964348   2.340748 H        1 UNL1     0.0236
     104 H         4.745019   0.049503   1.110124 H        1 UNL1     0.2098
     105 H         0.685092   1.219542   -1.02672 H        1 UNL1     0.0234
     106 H         1.361977   -0.429052   -0.90401 H        1 UNL1     0.0234
     107 H         0.0   -0.0   0.0 H        1 UNL1     0.0234
     108 H         1.632358   3.151422   1.540745 H        1 UNL1     0.2098
     109 H         0.675526   2.396746   -1.135377 H        1 UNL1     0.0234
     110 H         -0.558312   2.597988   -2.41988 H        1 UNL1     0.0234
     111 H         0.246689   3.976858   -1.756906 H        1 UNL1     0.0234
     112 H         -1.062656   -2.257866   0.498492 H        1 UNL1     0.0342
     113 H         -1.296783   -0.850081   1.594652 H        1 UNL1     0.0342
     114 H         -2.686803   -1.636524   0.841443 H        1 UNL1     0.0342
     115 H         -2.485003   3.09085   2.669828 H        1 UNL1     0.0234
     116 H         -2.596199   1.556012   3.537407 H        1 UNL1     0.0234
     117 H         -1.270064   2.708201   3.797169 H        1 UNL1     0.0234
     118 H         1.000283   6.185473   -2.107331 H        1 UNL1     0.0309
     119 H         0.27479   7.657628   -1.390058 H        1 UNL1     0.0309
     120 H         1.56845   7.749003   -2.5649 H        1 UNL1     0.0309
     121 H         -0.799945   5.37418   3.546998 H        1 UNL1     0.0524
     122 H         -0.308177   6.245993   2.089272 H        1 UNL1     0.0524
     123 H         -2.028563   6.19865   2.549462 H        1 UNL1     0.0524
@<TRIPOS>BOND
     1     1     2    1
     2     1    42    1
     3     2     3    2
     4     3     4    1
     5     4     5    2
     6     5     7    1
     7     6    75    1
     8     6    76    1
     9     6    77    1
    10     7     9   am
    11     9    10    1
    12    10    11    2
    13    10    43    1
    14    11    14    1
    15    11    15    1
    16    12    13   ar
    17    12    27   ar
    18    12    43    1
    19    13    14    1
    20    13    30   ar
    21    14    17    2
    22    15    16    1
    23    16    17    1
    24    16    18    1
    25    16    22    1
    26    18    19    1
    27    19    20    1
    28    20    21    1
    29    21    22    1
    30    23    24    1
    31    23    88    1
    32    23    89    1
    33    24    25    1
    34    24    26    1
    35    24    90    1
    36    25    91    1
    37    25    92    1
    38    25    93    1
    39    26    94    1
    40    26    95    1
    41    26    96    1
    42    27    28   ar
    43    28    29   ar
    44    29    30   ar
    45    29    31    1
    46    30    33    1
    47    31    32    1
    48    32    33    1
    49    32    35    1
    50    34    97    1
    51    34    98    1
    52    34    99    1
    53    35    61    1
    54    36    37    1
    55    36    60    1
    56    37    38    1
    57    38    39    1
    58    39    40    1
    59    40    41    1
    60    41    42    1
    61    45   100    1
    62    47   101    1
    63    47   102    1
    64    47   103    1
    65    48   104    1
    66    49   105    1
    67    49   106    1
    68    49   107    1
    69    50   108    1
    70    51    59    1
    71    52   109    1
    72    52   110    1
    73    52   111    1
    74    53    54    1
    75    54    55    2
    76    54    56    1
    77    56   112    1
    78    56   113    1
    79    56   114    1
    80    57   115    1
    81    57   116    1
    82    57   117    1
    83    58   118    1
    84    58   119    1
    85    58   120    1
    86    59   121    1
    87    59   122    1
    88    59   123    1
    89    60    61    2
    90     1    47    1
    91     1    62    1
    92     2    63    1
    93     3    64    1
    94     4    65    1
    95     5     6    1
    96     7     8    2
    97     9    78    1
    98    15    79    1
    99    18    80    1
   100    18    81    1
   101    19    82    1
   102    19    83    1
   103    20    23    1
   104    21    84    1
   105    21    85    1
   106    22    86    1
   107    22    87    1
   108    27    45    1
   109    28    34    1
   110    32    58    1
   111    33    46    2
   112    36    51    1
   113    36    66    1
   114    37    52    1
   115    37    67    1
   116    38    53    1
   117    38    68    1
   118    42    48    1
   119    42    72    1
   120    43    44    2
   121    60    73    1
   122    61    74    1
   123    39    69    1
   124    39    57    1
   125    40    70    1
   126    40    50    1
   127    41    71    1
   128    41    49    1
