@<TRIPOS>MOLECULE
*****
 123 128 0 0 0
SMALL
GASTEIGER

@<TRIPOS>ATOM
     1 C         5.220434   1.445762   0.810009 C.3        1 UNL1     0.0009
     2 C         6.757464   2.145235   0.044953 C.2        1 UNL1     -0.0787
     3 C         8.072478   1.955625   -0.530229 C.2        1 UNL1     -0.0649
     4 C         9.072583   3.118902   -1.246423 C.2        1 UNL1     -0.0542
     5 C         10.169036   3.32904   -2.118611 C.2        1 UNL1     0.0115
     6 C         11.311978   2.618078   -2.8942 C.3        1 UNL1     -0.0348
     7 C         10.395536   4.790185   -2.743704 C.2        1 UNL1     0.2441
     8 O         11.241252   5.568993   -2.325677 O.2        1 UNL1     -0.2702
     9 N         9.739271   5.016006   -3.966191 N.am        1 UNL1     -0.2772
     10 C         8.464635   5.485823   -3.747335 C.2        1 UNL1     0.1049
     11 C         7.543207   4.57361   -3.496218 C.2        1 UNL1     0.0801
     12 C         7.176046   7.198202   -2.45713 C.ar        1 UNL1     0.0753
     13 C         6.320995   6.128024   -2.042142 C.ar        1 UNL1     0.0305
     14 C         6.400371   4.803768   -2.654594 C.2        1 UNL1     0.0924
     15 N         7.594353   3.236488   -3.622771 N.pl3        1 UNL1     -0.3170
     16 C         6.271967   2.72171   -3.384962 C.3        1 UNL1     0.1275
     17 N         5.631412   3.734773   -2.467838 N.2        1 UNL1     -0.2557
     18 C         5.510627   2.804052   -4.704539 C.3        1 UNL1     0.0016
     19 C         6.295748   2.051189   -5.766788 C.3        1 UNL1     0.0026
     20 N         6.454409   0.668181   -5.338833 N.3        1 UNL1     -0.3018
     21 C         7.122031   0.489561   -4.047809 C.3        1 UNL1     0.0026
     22 C         6.314047   1.250104   -2.994893 C.3        1 UNL1     0.0016
     23 C         6.920856   -0.200797   -6.400882 C.3        1 UNL1     0.0012
     24 C         5.820423   -0.402002   -7.454599 C.3        1 UNL1     -0.0339
     25 C         6.034574   0.51131   -8.672819 C.3        1 UNL1     -0.0615
     26 C         5.747067   -1.864338   -7.858296 C.3        1 UNL1     -0.0615
     27 C         7.014032   8.487468   -1.955471 C.ar        1 UNL1     0.1347
     28 C         6.011383   8.835186   -1.067869 C.ar        1 UNL1     0.0342
     29 C         5.212325   7.75532   -0.635942 C.ar        1 UNL1     0.1435
     30 C         5.3859   6.451613   -1.102248 C.ar        1 UNL1     0.0774
     31 O         4.125617   7.949951   0.14264 O.3        1 UNL1     -0.4436
     32 C         3.340717   6.759859   -0.026137 C.3        1 UNL1     0.3143
     33 C         4.324393   5.696226   -0.470298 C.2        1 UNL1     0.2504
     34 C         5.620837   10.235026   -0.683133 C.3        1 UNL1     -0.0327
     35 O         2.866885   6.374687   1.270157 O.2        1 UNL1     -0.4528
     36 C         -0.454935   4.632453   0.688588 C.3        1 UNL1     0.0854
     37 C         -0.77647   3.373024   -0.204706 C.3        1 UNL1     0.0236
     38 C         -1.504571   2.167972   0.563059 C.3        1 UNL1     0.1131
     39 C         -0.901277   1.623203   1.92009 C.3        1 UNL1     0.0200
     40 C         0.741385   1.379114   2.076676 C.3        1 UNL1     0.0661
     41 C         1.727623   0.528513   0.989743 C.3        1 UNL1     0.0091
     42 C         3.488082   0.775374   0.536701 C.3        1 UNL1     0.0661
     43 C         8.184251   6.909193   -3.507015 C.2        1 UNL1     0.2131
     44 O         8.685588   7.765598   -4.212684 O.2        1 UNL1     -0.2851
     45 O         7.917107   9.461586   -2.37617 O.3        1 UNL1     -0.5056
     46 O         4.257695   4.497076   -0.317186 O.2        1 UNL1     -0.2836
     47 C         5.49279   1.025038   2.279293 C.3        1 UNL1     -0.0566
     48 O         3.842702   -0.657976   0.674067 O.3        1 UNL1     -0.3909
     49 C         0.965365   0.31918   -0.29969 C.3        1 UNL1     -0.0577
     50 O         1.387661   2.567094   2.487473 O.3        1 UNL1     -0.3910
     51 O         -0.683037   4.481265   2.071535 O.3        1 UNL1     -0.3753
     52 C         0.330762   3.124779   -1.280514 C.3        1 UNL1     -0.0564
     53 O         -2.108415   1.147481   -0.356885 O.3        1 UNL1     -0.4608
     54 C         -2.444762   -0.135038   -0.010552 C.2        1 UNL1     0.3042
     55 O         -1.909178   -1.175875   -0.389557 O.2        1 UNL1     -0.2512
     56 C         -3.563579   -0.214352   0.988785 C.3        1 UNL1     0.0332
     57 C         -1.662449   2.361904   3.117216 C.3        1 UNL1     -0.0567
     58 C         2.357369   7.04513   -1.185093 C.3        1 UNL1     0.0210
     59 C         -0.971957   5.692966   2.76736 C.3        1 UNL1     0.0372
     60 C         0.922602   5.175365   0.53759 C.2        1 UNL1     -0.0208
     61 C         1.800465   5.574038   1.459089 C.2        1 UNL1     0.0882
     62 H         4.801076   2.45842   0.847068 H        1 UNL1     0.0365
     63 H         6.549986   3.215185   0.113006 H        1 UNL1     0.0576
     64 H         8.483638   0.958404   -0.702289 H        1 UNL1     0.0615
     65 H         8.620562   4.069313   -0.949981 H        1 UNL1     0.0622
     66 H         -1.129974   5.415334   0.315137 H        1 UNL1     0.0645
     67 H         -1.578655   3.720264   -0.87886 H        1 UNL1     0.0362
     68 H         -2.444392   2.668574   0.841727 H        1 UNL1     0.0741
     69 H         -1.306556   0.638388   2.110608 H        1 UNL1     0.0359
     70 H         0.753339   0.732838   2.975145 H        1 UNL1     0.0600
     71 H         1.679831   -0.483772   1.436903 H        1 UNL1     0.0348
     72 H         3.347223   1.290522   1.498 H        1 UNL1     0.0602
     73 H         1.121308   5.342292   -0.491925 H        1 UNL1     0.0628
     74 H         1.69865   5.388431   2.528865 H        1 UNL1     0.1022
     75 H         11.260912   1.513016   -2.741674 H        1 UNL1     0.0279
     76 H         11.29065   2.706185   -3.978106 H        1 UNL1     0.0279
     77 H         12.308107   2.847183   -2.488073 H        1 UNL1     0.0279
     78 H         9.659139   4.139998   -4.478311 H        1 UNL1     0.1553
     79 H         8.27181   2.75582   -4.185748 H        1 UNL1     0.1484
     80 H         4.510207   2.376127   -4.567408 H        1 UNL1     0.0317
     81 H         5.366697   3.846318   -5.008867 H        1 UNL1     0.0317
     82 H         7.271749   2.520051   -5.960443 H        1 UNL1     0.0428
     83 H         5.736075   2.12411   -6.699793 H        1 UNL1     0.0428
     84 H         7.157183   -0.551668   -3.71252 H        1 UNL1     0.0428
     85 H         8.177405   0.792694   -4.087967 H        1 UNL1     0.0428
     86 H         6.752362   0.989252   -2.04947 H        1 UNL1     0.0317
     87 H         5.300963   0.835019   -2.928108 H        1 UNL1     0.0317
     88 H         7.782098   0.280466   -6.882486 H        1 UNL1     0.0429
     89 H         7.270176   -1.162878   -6.004459 H        1 UNL1     0.0429
     90 H         4.847549   -0.165509   -7.007608 H        1 UNL1     0.0308
     91 H         7.014502   0.34235   -9.129212 H        1 UNL1     0.0233
     92 H         5.256686   0.34509   -9.421732 H        1 UNL1     0.0233
     93 H         5.98472   1.57519   -8.411076 H        1 UNL1     0.0233
     94 H         5.105084   -1.981555   -8.738042 H        1 UNL1     0.0233
     95 H         6.74429   -2.230891   -8.117427 H        1 UNL1     0.0233
     96 H         5.342944   -2.481411   -7.050909 H        1 UNL1     0.0233
     97 H         4.772526   10.249656   -0.005353 H        1 UNL1     0.0280
     98 H         6.43077   10.76228   -0.1623 H        1 UNL1     0.0280
     99 H         5.350504   10.804478   -1.587423 H        1 UNL1     0.0280
     100 H         7.519585   10.232142   -2.742013 H        1 UNL1     0.2922
     101 H         4.570479   0.666908   2.736175 H        1 UNL1     0.0236
     102 H         5.963632   1.810296   2.869768 H        1 UNL1     0.0236
     103 H         6.187051   0.170595   2.343496 H        1 UNL1     0.0236
     104 H         4.188859   -0.790843   1.57822 H        1 UNL1     0.2098
     105 H         0.847045   1.216303   -0.902169 H        1 UNL1     0.0234
     106 H         1.328639   -0.503871   -0.91495 H        1 UNL1     0.0234
     107 H         0.0   -0.0   0.0 H        1 UNL1     0.0234
     108 H         1.291879   3.214889   1.762935 H        1 UNL1     0.2098
     109 H         1.321263   2.970646   -0.830112 H        1 UNL1     0.0234
     110 H         0.099536   2.290514   -1.951543 H        1 UNL1     0.0234
     111 H         0.441047   3.985273   -1.953814 H        1 UNL1     0.0234
     112 H         -3.767435   -1.260387   1.236974 H        1 UNL1     0.0342
     113 H         -3.353422   0.366229   1.885782 H        1 UNL1     0.0342
     114 H         -4.467673   0.204232   0.525572 H        1 UNL1     0.0342
     115 H         -2.745452   2.179205   3.086993 H        1 UNL1     0.0234
     116 H         -1.309095   2.07769   4.110399 H        1 UNL1     0.0234
     117 H         -1.629992   3.46275   3.046312 H        1 UNL1     0.0234
     118 H         1.461658   7.592871   -0.843498 H        1 UNL1     0.0309
     119 H         2.817398   7.592414   -2.013981 H        1 UNL1     0.0309
     120 H         1.942716   6.12899   -1.619671 H        1 UNL1     0.0309
     121 H         -0.088024   6.3272   2.705995 H        1 UNL1     0.0524
     122 H         -1.810155   6.246831   2.312723 H        1 UNL1     0.0524
     123 H         -1.210698   5.482202   3.805953 H        1 UNL1     0.0524
@<TRIPOS>BOND
     1     1     2    1
     2     1    42    1
     3     2     3    2
     4     3     4    1
     5     4     5    2
     6     5     7    1
     7     6    75    1
     8     6    76    1
     9     6    77    1
    10     7     9   am
    11     9    10    1
    12    10    11    2
    13    10    43    1
    14    11    14    1
    15    11    15    1
    16    12    13   ar
    17    12    27   ar
    18    12    43    1
    19    13    14    1
    20    13    30   ar
    21    14    17    2
    22    15    16    1
    23    16    17    1
    24    16    18    1
    25    16    22    1
    26    18    19    1
    27    19    20    1
    28    20    21    1
    29    21    22    1
    30    23    24    1
    31    23    88    1
    32    23    89    1
    33    24    25    1
    34    24    26    1
    35    24    90    1
    36    25    91    1
    37    25    92    1
    38    25    93    1
    39    26    94    1
    40    26    95    1
    41    26    96    1
    42    27    28   ar
    43    28    29   ar
    44    29    30   ar
    45    29    31    1
    46    30    33    1
    47    31    32    1
    48    32    33    1
    49    32    35    1
    50    34    97    1
    51    34    98    1
    52    34    99    1
    53    35    61    1
    54    36    37    1
    55    36    60    1
    56    37    38    1
    57    38    39    1
    58    39    40    1
    59    40    41    1
    60    41    42    1
    61    45   100    1
    62    47   101    1
    63    47   102    1
    64    47   103    1
    65    48   104    1
    66    49   105    1
    67    49   106    1
    68    49   107    1
    69    50   108    1
    70    51    59    1
    71    52   109    1
    72    52   110    1
    73    52   111    1
    74    53    54    1
    75    54    55    2
    76    54    56    1
    77    56   112    1
    78    56   113    1
    79    56   114    1
    80    57   115    1
    81    57   116    1
    82    57   117    1
    83    58   118    1
    84    58   119    1
    85    58   120    1
    86    59   121    1
    87    59   122    1
    88    59   123    1
    89    60    61    2
    90     1    47    1
    91     1    62    1
    92     2    63    1
    93     3    64    1
    94     4    65    1
    95     5     6    1
    96     7     8    2
    97     9    78    1
    98    15    79    1
    99    18    80    1
   100    18    81    1
   101    19    82    1
   102    19    83    1
   103    20    23    1
   104    21    84    1
   105    21    85    1
   106    22    86    1
   107    22    87    1
   108    27    45    1
   109    28    34    1
   110    32    58    1
   111    33    46    2
   112    36    51    1
   113    36    66    1
   114    37    52    1
   115    37    67    1
   116    38    53    1
   117    38    68    1
   118    42    48    1
   119    42    72    1
   120    43    44    2
   121    60    73    1
   122    61    74    1
   123    39    69    1
   124    39    57    1
   125    40    70    1
   126    40    50    1
   127    41    71    1
   128    41    49    1
