@<TRIPOS>MOLECULE
*****
 123 128 0 0 0
SMALL
GASTEIGER

@<TRIPOS>ATOM
     1 C         5.123508   1.836859   0.612282 C.3        1 UNL1     0.0009
     2 C         6.562808   2.675106   -0.201839 C.2        1 UNL1     -0.0787
     3 C         7.859806   2.605023   -0.841316 C.2        1 UNL1     -0.0649
     4 C         8.730381   3.861481   -1.56917 C.2        1 UNL1     -0.0542
     5 C         9.764258   4.179614   -2.48403 C.2        1 UNL1     0.0115
     6 C         10.921284   3.581192   -3.330496 C.3        1 UNL1     -0.0348
     7 C         9.845452   5.66903   -3.077356 C.2        1 UNL1     0.2441
     8 O         10.646377   6.502277   -2.676426 O.2        1 UNL1     -0.2702
     9 N         9.116117   5.871713   -4.261898 N.am        1 UNL1     -0.2772
     10 C         7.820402   6.232972   -3.972178 C.2        1 UNL1     0.1049
     11 C         6.986364   5.244364   -3.705237 C.2        1 UNL1     0.0801
     12 C         6.464246   7.805117   -2.576996 C.ar        1 UNL1     0.0753
     13 C         5.716489   6.660369   -2.153888 C.ar        1 UNL1     0.0305
     14 C         5.870304   5.362047   -2.806383 C.2        1 UNL1     0.0924
     15 N         7.136179   3.91907   -3.871609 N.pl3        1 UNL1     -0.3170
     16 C         5.871061   3.294891   -3.588534 C.3        1 UNL1     0.1275
     17 N         5.197332   4.230927   -2.61506 N.2        1 UNL1     -0.2557
     18 C         5.043734   3.3486   -4.869294 C.3        1 UNL1     0.0016
     19 C         5.834106   2.686932   -5.986924 C.3        1 UNL1     0.0026
     20 N         6.120946   1.310899   -5.605762 N.3        1 UNL1     -0.3018
     21 C         6.861146   1.154478   -4.351966 C.3        1 UNL1     0.0026
     22 C         6.046961   1.822207   -3.2424 C.3        1 UNL1     0.0016
     23 C         6.603106   0.508122   -6.711978 C.3        1 UNL1     0.0012
     24 C         5.473001   0.245742   -7.719835 C.3        1 UNL1     -0.0339
     25 C         5.50469   1.258288   -8.876469 C.3        1 UNL1     -0.0615
     26 C         5.548545   -1.184107   -8.226396 C.3        1 UNL1     -0.0615
     27 C         6.225618   9.064701   -2.032365 C.ar        1 UNL1     0.1347
     28 C         5.242117   9.309578   -1.090658 C.ar        1 UNL1     0.0342
     29 C         4.551683   8.159223   -0.653453 C.ar        1 UNL1     0.1435
     30 C         4.804636   6.885305   -1.163715 C.ar        1 UNL1     0.0774
     31 O         3.491303   8.247519   0.178897 O.3        1 UNL1     -0.4436
     32 C         2.795055   7.003162   0.012508 C.3        1 UNL1     0.3143
     33 C         3.836913   6.032489   -0.505701 C.2        1 UNL1     0.2504
     34 C         4.761687   10.664005   -0.649278 C.3        1 UNL1     -0.0327
     35 O         2.41507   6.549828   1.317633 O.2        1 UNL1     -0.4528
     36 C         -0.783709   4.563217   0.838806 C.3        1 UNL1     0.0854
     37 C         -1.047553   3.304428   -0.074079 C.3        1 UNL1     0.0236
     38 C         -1.641542   2.026752   0.691731 C.3        1 UNL1     0.1131
     39 C         -0.933534   1.498714   2.004046 C.3        1 UNL1     0.0200
     40 C         0.728796   1.382528   2.078861 C.3        1 UNL1     0.0661
     41 C         1.725931   0.640092   0.924686 C.3        1 UNL1     0.0091
     42 C         3.43806   1.037463   0.399223 C.3        1 UNL1     0.0661
     43 C         7.440957   7.623161   -3.679351 C.2        1 UNL1     0.2131
     44 O         7.839443   8.533814   -4.38267 O.2        1 UNL1     -0.2851
     45 O         7.028462   10.117689   -2.466065 O.3        1 UNL1     -0.5056
     46 O         3.871853   4.828448   -0.383563 O.2        1 UNL1     -0.2836
     47 C         5.497578   1.403317   2.055229 C.3        1 UNL1     -0.0566
     48 O         3.910167   -0.366006   0.479887 O.3        1 UNL1     -0.3909
     49 C         0.922006   0.40233   -0.33415 C.3        1 UNL1     -0.0577
     50 O         1.298676   2.607808   2.493165 O.3        1 UNL1     -0.3910
     51 O         -0.933239   4.36051   2.225883 O.3        1 UNL1     -0.3753
     52 C         0.023338   3.17162   -1.205673 C.3        1 UNL1     -0.0564
     53 O         -2.206515   0.984228   -0.228201 O.3        1 UNL1     -0.4608
     54 C         -2.412114   -0.332097   0.092654 C.2        1 UNL1     0.3042
     55 O         -1.81298   -1.311192   -0.350347 O.2        1 UNL1     -0.2512
     56 C         -3.460318   -0.536964   1.149068 C.3        1 UNL1     0.0332
     57 C         -1.692535   2.144876   3.254873 C.3        1 UNL1     -0.0567
     58 C         1.738373   7.23747   -1.092051 C.3        1 UNL1     0.0210
     59 C         -1.31364   5.521041   2.963668 C.3        1 UNL1     0.0372
     60 C         0.538247   5.217699   0.640703 C.2        1 UNL1     -0.0208
     61 C         1.424942   5.662365   1.532212 C.2        1 UNL1     0.0882
     62 H         4.628234   2.81167   0.696884 H        1 UNL1     0.0365
     63 H         6.275499   3.723133   -0.094305 H        1 UNL1     0.0576
     64 H         8.339287   1.648248   -1.059918 H        1 UNL1     0.0615
     65 H         8.219797   4.765307   -1.225826 H        1 UNL1     0.0622
     66 H         -1.535077   5.298731   0.518633 H        1 UNL1     0.0645
     67 H         -1.905649   3.603052   -0.70102 H        1 UNL1     0.0362
     68 H         -2.603425   2.443901   1.026826 H        1 UNL1     0.0741
     69 H         -1.250784   0.480368   2.184967 H        1 UNL1     0.0359
     70 H         0.834118   0.71745   2.957291 H        1 UNL1     0.0600
     71 H         1.779017   -0.383429   1.344857 H        1 UNL1     0.0348
     72 H         3.303084   1.516051   1.380065 H        1 UNL1     0.0602
     73 H         0.674072   5.425093   -0.391667 H        1 UNL1     0.0628
     74 H         1.38898   5.443091   2.599855 H        1 UNL1     0.1022
     75 H         10.982471   2.475724   -3.184786 H        1 UNL1     0.0279
     76 H         10.828601   3.670342   -4.410557 H        1 UNL1     0.0279
     77 H         11.91371   3.90123   -2.980688 H        1 UNL1     0.0279
     78 H         9.080701   5.004912   -4.794325 H        1 UNL1     0.1553
     79 H         7.821724   3.507843   -4.478118 H        1 UNL1     0.1484
     80 H         4.087624   2.839092   -4.698941 H        1 UNL1     0.0317
     81 H         4.804173   4.383224   -5.137278 H        1 UNL1     0.0317
     82 H         6.760001   3.236674   -6.211457 H        1 UNL1     0.0428
     83 H         5.226714   2.737855   -6.891099 H        1 UNL1     0.0428
     84 H         6.993778   0.111463   -4.048092 H        1 UNL1     0.0428
     85 H         7.886379   1.541633   -4.431499 H        1 UNL1     0.0428
     86 H         6.548841   1.574034   -2.325604 H        1 UNL1     0.0317
     87 H         5.073889   1.326208   -3.141354 H        1 UNL1     0.0317
     88 H         7.400063   1.06813   -7.218482 H        1 UNL1     0.0429
     89 H         7.045279   -0.432484   -6.359109 H        1 UNL1     0.0429
     90 H         4.507535   0.331283   -7.207224 H        1 UNL1     0.0308
     91 H         6.46533   1.234551   -9.399642 H        1 UNL1     0.0233
     92 H         4.702647   1.054998   -9.589919 H        1 UNL1     0.0233
     93 H         5.354712   2.289111   -8.533331 H        1 UNL1     0.0233
     94 H         4.872213   -1.31958   -9.077312 H        1 UNL1     0.0233
     95 H         6.564351   -1.407631   -8.56424 H        1 UNL1     0.0233
     96 H         5.270531   -1.898866   -7.446783 H        1 UNL1     0.0233
     97 H         3.954182   10.594316   0.073431 H        1 UNL1     0.0280
     98 H         5.554134   11.244795   -0.159415 H        1 UNL1     0.0280
     99 H         4.396048   11.228535   -1.52261 H        1 UNL1     0.0280
     100 H         6.554804   10.862077   -2.793415 H        1 UNL1     0.2922
     101 H         4.63241   0.950428   2.538998 H        1 UNL1     0.0236
     102 H         5.921666   2.212048   2.64944 H        1 UNL1     0.0236
     103 H         6.268017   0.614305   2.063986 H        1 UNL1     0.0236
     104 H         4.313673   -0.491283   1.361056 H        1 UNL1     0.2098
     105 H         0.705158   1.301658   -0.905112 H        1 UNL1     0.0234
     106 H         1.319067   -0.373843   -0.988233 H        1 UNL1     0.0234
     107 H         0.0   -0.0   0.0 H        1 UNL1     0.0234
     108 H         1.100316   3.268468   1.801826 H        1 UNL1     0.2098
     109 H         1.041935   3.073499   -0.804994 H        1 UNL1     0.0234
     110 H         -0.180016   2.345815   -1.895918 H        1 UNL1     0.0234
     111 H         0.042179   4.059724   -1.851321 H        1 UNL1     0.0234
     112 H         -3.571088   -1.604686   1.361311 H        1 UNL1     0.0342
     113 H         -3.240466   0.021283   2.057842 H        1 UNL1     0.0342
     114 H         -4.418933   -0.170332   0.756891 H        1 UNL1     0.0342
     115 H         -2.752538   1.857101   3.282548 H        1 UNL1     0.0234
     116 H         -1.256389   1.884976   4.221454 H        1 UNL1     0.0234
     117 H         -1.771542   3.244352   3.201473 H        1 UNL1     0.0234
     118 H         0.820311   7.704991   -0.695072 H        1 UNL1     0.0309
     119 H         2.114583   7.838519   -1.925962 H        1 UNL1     0.0309
     120 H         1.375554   6.302058   -1.531908 H        1 UNL1     0.0309
     121 H         -0.519902   6.258874   2.849918 H        1 UNL1     0.0524
     122 H         -2.244243   5.973045   2.581951 H        1 UNL1     0.0524
     123 H         -1.446864   5.272529   4.012757 H        1 UNL1     0.0524
@<TRIPOS>BOND
     1     1     2    1
     2     1    42    1
     3     2     3    2
     4     3     4    1
     5     4     5    2
     6     5     7    1
     7     6    75    1
     8     6    76    1
     9     6    77    1
    10     7     9   am
    11     9    10    1
    12    10    11    2
    13    10    43    1
    14    11    14    1
    15    11    15    1
    16    12    13   ar
    17    12    27   ar
    18    12    43    1
    19    13    14    1
    20    13    30   ar
    21    14    17    2
    22    15    16    1
    23    16    17    1
    24    16    18    1
    25    16    22    1
    26    18    19    1
    27    19    20    1
    28    20    21    1
    29    21    22    1
    30    23    24    1
    31    23    88    1
    32    23    89    1
    33    24    25    1
    34    24    26    1
    35    24    90    1
    36    25    91    1
    37    25    92    1
    38    25    93    1
    39    26    94    1
    40    26    95    1
    41    26    96    1
    42    27    28   ar
    43    28    29   ar
    44    29    30   ar
    45    29    31    1
    46    30    33    1
    47    31    32    1
    48    32    33    1
    49    32    35    1
    50    34    97    1
    51    34    98    1
    52    34    99    1
    53    35    61    1
    54    36    37    1
    55    36    60    1
    56    37    38    1
    57    38    39    1
    58    39    40    1
    59    40    41    1
    60    41    42    1
    61    45   100    1
    62    47   101    1
    63    47   102    1
    64    47   103    1
    65    48   104    1
    66    49   105    1
    67    49   106    1
    68    49   107    1
    69    50   108    1
    70    51    59    1
    71    52   109    1
    72    52   110    1
    73    52   111    1
    74    53    54    1
    75    54    55    2
    76    54    56    1
    77    56   112    1
    78    56   113    1
    79    56   114    1
    80    57   115    1
    81    57   116    1
    82    57   117    1
    83    58   118    1
    84    58   119    1
    85    58   120    1
    86    59   121    1
    87    59   122    1
    88    59   123    1
    89    60    61    2
    90     1    47    1
    91     1    62    1
    92     2    63    1
    93     3    64    1
    94     4    65    1
    95     5     6    1
    96     7     8    2
    97     9    78    1
    98    15    79    1
    99    18    80    1
   100    18    81    1
   101    19    82    1
   102    19    83    1
   103    20    23    1
   104    21    84    1
   105    21    85    1
   106    22    86    1
   107    22    87    1
   108    27    45    1
   109    28    34    1
   110    32    58    1
   111    33    46    2
   112    36    51    1
   113    36    66    1
   114    37    52    1
   115    37    67    1
   116    38    53    1
   117    38    68    1
   118    42    48    1
   119    42    72    1
   120    43    44    2
   121    60    73    1
   122    61    74    1
   123    39    69    1
   124    39    57    1
   125    40    70    1
   126    40    50    1
   127    41    71    1
   128    41    49    1
