@<TRIPOS>MOLECULE
*****
 123 128 0 0 0
SMALL
GASTEIGER

@<TRIPOS>ATOM
     1 C         5.167402   1.747416   0.493687 C.3        1 UNL1     0.0009
     2 C         6.604588   2.553451   -0.355926 C.2        1 UNL1     -0.0787
     3 C         7.886673   2.455167   -1.021242 C.2        1 UNL1     -0.0649
     4 C         8.764693   3.690326   -1.776105 C.2        1 UNL1     -0.0542
     5 C         9.785119   3.983032   -2.714259 C.2        1 UNL1     0.0115
     6 C         10.91346   3.357597   -3.579707 C.3        1 UNL1     -0.0348
     7 C         9.881041   5.46647   -3.32023 C.2        1 UNL1     0.2441
     8 O         10.705   6.287782   -2.941993 O.2        1 UNL1     -0.2702
     9 N         9.131278   5.674021   -4.491097 N.am        1 UNL1     -0.2772
     10 C         7.848552   6.060919   -4.177657 C.2        1 UNL1     0.1049
     11 C         7.00242   5.08962   -3.886345 C.2        1 UNL1     0.0801
     12 C         6.550074   7.66742   -2.766826 C.ar        1 UNL1     0.0753
     13 C         5.790577   6.539545   -2.319981 C.ar        1 UNL1     0.0305
     14 C         5.907404   5.234033   -2.965768 C.2        1 UNL1     0.0924
     15 N         7.124761   3.760665   -4.04584 N.pl3        1 UNL1     -0.3170
     16 C         5.854642   3.161709   -3.732307 C.3        1 UNL1     0.1275
     17 N         5.218142   4.116773   -2.752284 N.2        1 UNL1     -0.2557
     18 C         5.002247   3.221421   -4.996253 C.3        1 UNL1     0.0016
     19 C         5.757347   2.53752   -6.124833 C.3        1 UNL1     0.0026
     20 N         6.027009   1.15922   -5.739345 N.3        1 UNL1     -0.3018
     21 C         6.789895   0.998215   -4.499809 C.3        1 UNL1     0.0026
     22 C         6.010935   1.688553   -3.37885 C.3        1 UNL1     0.0016
     23 C         6.471694   0.339944   -6.849159 C.3        1 UNL1     0.0012
     24 C         5.316527   0.091091   -7.831715 C.3        1 UNL1     -0.0339
     25 C         5.342738   1.094655   -8.996288 C.3        1 UNL1     -0.0615
     26 C         5.355732   -1.343458   -8.32902 C.3        1 UNL1     -0.0615
     27 C         6.345546   8.934984   -2.226855 C.ar        1 UNL1     0.1347
     28 C         5.386224   9.204451   -1.267095 C.ar        1 UNL1     0.0342
     29 C         4.684217   8.070023   -0.807287 C.ar        1 UNL1     0.1435
     30 C         4.903512   6.788111   -1.313083 C.ar        1 UNL1     0.0774
     31 O         3.64296   8.183566   0.045883 O.3        1 UNL1     -0.4436
     32 C         2.92102   6.950976   -0.096939 C.3        1 UNL1     0.3143
     33 C         3.93425   5.957793   -0.629072 C.2        1 UNL1     0.2504
     34 C         4.939578   10.57052   -0.826117 C.3        1 UNL1     -0.0327
     35 O         2.559823   6.513928   1.219032 O.2        1 UNL1     -0.4528
     36 C         -0.683574   4.582692   0.820548 C.3        1 UNL1     0.0854
     37 C         -0.988892   3.322482   -0.077325 C.3        1 UNL1     0.0236
     38 C         -1.590034   2.061329   0.709991 C.3        1 UNL1     0.1131
     39 C         -0.864852   1.529782   2.011466 C.3        1 UNL1     0.0200
     40 C         0.79629   1.383804   2.05315 C.3        1 UNL1     0.0661
     41 C         1.755861   0.615117   0.88441 C.3        1 UNL1     0.0091
     42 C         3.463731   0.977428   0.321104 C.3        1 UNL1     0.0661
     43 C         7.500444   7.459847   -3.887527 C.2        1 UNL1     0.2131
     44 O         7.900797   8.35806   -4.605628 O.2        1 UNL1     -0.2851
     45 O         7.15823   9.970037   -2.68473 O.3        1 UNL1     -0.5056
     46 O         3.949891   4.754212   -0.498683 O.2        1 UNL1     -0.2836
     47 C         5.56317   1.317369   1.931883 C.3        1 UNL1     -0.0566
     48 O         3.91191   -0.433817   0.402581 O.3        1 UNL1     -0.3909
     49 C         0.922033   0.383141   -0.355917 C.3        1 UNL1     -0.0577
     50 O         1.396664   2.601387   2.446553 O.3        1 UNL1     -0.3910
     51 O         -0.808179   4.392598   2.211867 O.3        1 UNL1     -0.3753
     52 C         0.05591   3.16212   -1.229549 C.3        1 UNL1     -0.0564
     53 O         -2.192598   1.02279   -0.190386 O.3        1 UNL1     -0.4608
     54 C         -2.415349   -0.287252   0.144428 C.2        1 UNL1     0.3042
     55 O         -1.843153   -1.280228   -0.303266 O.2        1 UNL1     -0.2512
     56 C         -3.445323   -0.465463   1.223367 C.3        1 UNL1     0.0332
     57 C         -1.586133   2.198552   3.272686 C.3        1 UNL1     -0.0567
     58 C         1.846251   7.196689   -1.181386 C.3        1 UNL1     0.0210
     59 C         -1.152246   5.565087   2.948585 C.3        1 UNL1     0.0372
     60 C         0.645659   5.211512   0.590579 C.2        1 UNL1     -0.0208
     61 C         1.558414   5.646233   1.460429 C.2        1 UNL1     0.0882
     62 H         4.691704   2.731682   0.581111 H        1 UNL1     0.0365
     63 H         6.338574   3.607285   -0.250373 H        1 UNL1     0.0576
     64 H         8.344154   1.488271   -1.242446 H        1 UNL1     0.0615
     65 H         8.277729   4.605736   -1.429157 H        1 UNL1     0.0622
     66 H         -1.427931   5.329509   0.510316 H        1 UNL1     0.0645
     67 H         -1.854158   3.632264   -0.688806 H        1 UNL1     0.0362
     68 H         -2.537109   2.498335   1.061553 H        1 UNL1     0.0741
     69 H         -1.196698   0.518707   2.206436 H        1 UNL1     0.0359
     70 H         0.907604   0.723165   2.934187 H        1 UNL1     0.0600
     71 H         1.799041   -0.406195   1.311042 H        1 UNL1     0.0348
     72 H         3.35765   1.46535   1.300897 H        1 UNL1     0.0602
     73 H         0.763947   5.409059   -0.445872 H        1 UNL1     0.0628
     74 H         1.540461   5.435235   2.530193 H        1 UNL1     0.1022
     75 H         10.957607   2.252258   -3.427025 H        1 UNL1     0.0279
     76 H         10.800204   3.440756   -4.658283 H        1 UNL1     0.0279
     77 H         11.918505   3.66194   -3.25266 H        1 UNL1     0.0279
     78 H         9.069227   4.804254   -5.016199 H        1 UNL1     0.1553
     79 H         7.790125   3.332698   -4.663148 H        1 UNL1     0.1484
     80 H         4.040776   2.730673   -4.802589 H        1 UNL1     0.0317
     81 H         4.775994   4.258318   -5.267004 H        1 UNL1     0.0317
     82 H         6.688228   3.06866   -6.372346 H        1 UNL1     0.0428
     83 H         5.132502   2.593104   -7.016757 H        1 UNL1     0.0428
     84 H         6.909846   -0.044865   -4.190928 H        1 UNL1     0.0428
     85 H         7.820116   1.366016   -4.603173 H        1 UNL1     0.0428
     86 H         6.526995   1.437773   -2.470677 H        1 UNL1     0.0317
     87 H         5.031326   1.211129   -3.254231 H        1 UNL1     0.0317
     88 H         7.268069   0.881702   -7.376018 H        1 UNL1     0.0429
     89 H         6.903931   -0.606049   -6.498387 H        1 UNL1     0.0429
     90 H         4.363518   0.197878   -7.300129 H        1 UNL1     0.0308
     91 H         6.29301   1.051853   -9.536892 H        1 UNL1     0.0233
     92 H         4.524483   0.899042   -9.693284 H        1 UNL1     0.0233
     93 H         5.215456   2.13018   -8.658171 H        1 UNL1     0.0233
     94 H         4.659693   -1.472597   -9.164897 H        1 UNL1     0.0233
     95 H         6.360158   -1.587879   -8.685879 H        1 UNL1     0.0233
     96 H         5.080921   -2.047472   -7.53857 H        1 UNL1     0.0233
     97 H         4.145984   10.520715   -0.086551 H        1 UNL1     0.0280
     98 H         5.752321   11.14021   -0.356907 H        1 UNL1     0.0280
     99 H         4.566329   11.135419   -1.695985 H        1 UNL1     0.0280
     100 H         6.691492   10.720605   -3.00788 H        1 UNL1     0.2922
     101 H         4.700081   0.883794   2.436607 H        1 UNL1     0.0236
     102 H         6.013967   2.12242   2.511244 H        1 UNL1     0.0236
     103 H         6.319215   0.514507   1.930783 H        1 UNL1     0.0236
     104 H         4.331126   -0.560182   1.276229 H        1 UNL1     0.2098
     105 H         0.709723   1.282217   -0.928978 H        1 UNL1     0.0234
     106 H         1.291488   -0.404709   -1.012212 H        1 UNL1     0.0234
     107 H         0.0   -0.0   0.0 H        1 UNL1     0.0234
     108 H         1.198508   3.259902   1.753113 H        1 UNL1     0.2098
     109 H         1.080592   3.048267   -0.849055 H        1 UNL1     0.0234
     110 H         -0.176521   2.335287   -1.909305 H        1 UNL1     0.0234
     111 H         0.077539   4.045128   -1.882064 H        1 UNL1     0.0234
     112 H         -3.571007   -1.52945   1.44581 H        1 UNL1     0.0342
     113 H         -3.196941   0.095153   2.123289 H        1 UNL1     0.0342
     114 H         -4.404958   -0.084242   0.847953 H        1 UNL1     0.0342
     115 H         -2.650379   1.930379   3.324172 H        1 UNL1     0.0234
     116 H         -1.134969   1.9376   4.232063 H        1 UNL1     0.0234
     117 H         -1.646303   3.29888   3.2127 H        1 UNL1     0.0234
     118 H         0.945166   7.683697   -0.769226 H        1 UNL1     0.0309
     119 H         2.216045   7.784838   -2.02728 H        1 UNL1     0.0309
     120 H         1.457583   6.264958   -1.606733 H        1 UNL1     0.0309
     121 H         -0.347788   6.287481   2.813124 H        1 UNL1     0.0524
     122 H         -2.08217   6.031283   2.582605 H        1 UNL1     0.0524
     123 H         -1.268334   5.3265   4.002005 H        1 UNL1     0.0524
@<TRIPOS>BOND
     1     1     2    1
     2     1    42    1
     3     2     3    2
     4     3     4    1
     5     4     5    2
     6     5     7    1
     7     6    75    1
     8     6    76    1
     9     6    77    1
    10     7     9   am
    11     9    10    1
    12    10    11    2
    13    10    43    1
    14    11    14    1
    15    11    15    1
    16    12    13   ar
    17    12    27   ar
    18    12    43    1
    19    13    14    1
    20    13    30   ar
    21    14    17    2
    22    15    16    1
    23    16    17    1
    24    16    18    1
    25    16    22    1
    26    18    19    1
    27    19    20    1
    28    20    21    1
    29    21    22    1
    30    23    24    1
    31    23    88    1
    32    23    89    1
    33    24    25    1
    34    24    26    1
    35    24    90    1
    36    25    91    1
    37    25    92    1
    38    25    93    1
    39    26    94    1
    40    26    95    1
    41    26    96    1
    42    27    28   ar
    43    28    29   ar
    44    29    30   ar
    45    29    31    1
    46    30    33    1
    47    31    32    1
    48    32    33    1
    49    32    35    1
    50    34    97    1
    51    34    98    1
    52    34    99    1
    53    35    61    1
    54    36    37    1
    55    36    60    1
    56    37    38    1
    57    38    39    1
    58    39    40    1
    59    40    41    1
    60    41    42    1
    61    45   100    1
    62    47   101    1
    63    47   102    1
    64    47   103    1
    65    48   104    1
    66    49   105    1
    67    49   106    1
    68    49   107    1
    69    50   108    1
    70    51    59    1
    71    52   109    1
    72    52   110    1
    73    52   111    1
    74    53    54    1
    75    54    55    2
    76    54    56    1
    77    56   112    1
    78    56   113    1
    79    56   114    1
    80    57   115    1
    81    57   116    1
    82    57   117    1
    83    58   118    1
    84    58   119    1
    85    58   120    1
    86    59   121    1
    87    59   122    1
    88    59   123    1
    89    60    61    2
    90     1    47    1
    91     1    62    1
    92     2    63    1
    93     3    64    1
    94     4    65    1
    95     5     6    1
    96     7     8    2
    97     9    78    1
    98    15    79    1
    99    18    80    1
   100    18    81    1
   101    19    82    1
   102    19    83    1
   103    20    23    1
   104    21    84    1
   105    21    85    1
   106    22    86    1
   107    22    87    1
   108    27    45    1
   109    28    34    1
   110    32    58    1
   111    33    46    2
   112    36    51    1
   113    36    66    1
   114    37    52    1
   115    37    67    1
   116    38    53    1
   117    38    68    1
   118    42    48    1
   119    42    72    1
   120    43    44    2
   121    60    73    1
   122    61    74    1
   123    39    69    1
   124    39    57    1
   125    40    70    1
   126    40    50    1
   127    41    71    1
   128    41    49    1
