@<TRIPOS>MOLECULE
*****
 123 128 0 0 0
SMALL
GASTEIGER

@<TRIPOS>ATOM
     1 C         5.187474   1.703074   0.434655 C.3        1 UNL1     0.0009
     2 C         6.623175   2.492737   -0.432657 C.2        1 UNL1     -0.0787
     3 C         7.897593   2.380268   -1.110342 C.2        1 UNL1     -0.0649
     4 C         8.778948   3.604421   -1.879119 C.2        1 UNL1     -0.0542
     5 C         9.792471   3.884143   -2.828648 C.2        1 UNL1     0.0115
     6 C         10.90646   3.245101   -3.702706 C.3        1 UNL1     -0.0348
     7 C         9.895502   5.364165   -3.441761 C.2        1 UNL1     0.2441
     8 O         10.73049   6.179624   -3.075228 O.2        1 UNL1     -0.2702
     9 N         9.135902   5.573605   -4.605932 N.am        1 UNL1     -0.2772
     10 C         7.859879   5.973236   -4.281306 C.2        1 UNL1     0.1049
     11 C         7.008105   5.010743   -3.977478 C.2        1 UNL1     0.0801
     12 C         6.589971   7.597055   -2.864309 C.ar        1 UNL1     0.0753
     13 C         5.824992   6.477857   -2.405168 C.ar        1 UNL1     0.0305
     14 C         5.923711   5.168714   -3.046612 C.2        1 UNL1     0.0924
     15 N         7.11701   3.680105   -4.132617 N.pl3        1 UNL1     -0.3170
     16 C         5.844822   3.093817   -3.803891 C.3        1 UNL1     0.1275
     17 N         5.226713   4.058545   -2.821565 N.2        1 UNL1     -0.2557
     18 C         4.98035   3.15596   -5.05949 C.3        1 UNL1     0.0016
     19 C         5.717971   2.460712   -6.192686 C.3        1 UNL1     0.0026
     20 N         5.979213   1.08165   -5.80414 N.3        1 UNL1     -0.3018
     21 C         6.753039   0.918919   -4.57163 C.3        1 UNL1     0.0026
     22 C         5.991541   1.620786   -3.445842 C.3        1 UNL1     0.0016
     23 C         6.40543   0.253886   -6.914901 C.3        1 UNL1     0.0012
     24 C         5.238291   0.011339   -7.884805 C.3        1 UNL1     -0.0339
     25 C         5.310848   0.952452   -9.098518 C.3        1 UNL1     -0.0615
     26 C         5.208106   -1.446707   -8.309032 C.3        1 UNL1     -0.0615
     27 C         6.402159   8.868601   -2.327638 C.ar        1 UNL1     0.1347
     28 C         5.454953   9.150568   -1.359472 C.ar        1 UNL1     0.0342
     29 C         4.747531   8.024357   -0.887915 C.ar        1 UNL1     0.1435
     30 C         4.950324   6.738471   -1.3905 C.ar        1 UNL1     0.0774
     31 O         3.71594   8.150702   -0.02486 O.3        1 UNL1     -0.4436
     32 C         2.981665   6.924039   -0.155287 C.3        1 UNL1     0.3143
     33 C         3.980627   5.919664   -0.693357 C.2        1 UNL1     0.2504
     34 C         5.024928   10.522373   -0.919779 C.3        1 UNL1     -0.0327
     35 O         2.629819   6.49564   1.16605 O.2        1 UNL1     -0.4528
     36 C         -0.634469   4.591856   0.808118 C.3        1 UNL1     0.0854
     37 C         -0.959983   3.330753   -0.081366 C.3        1 UNL1     0.0236
     38 C         -1.56439   2.078264   0.717201 C.3        1 UNL1     0.1131
     39 C         -0.830941   1.5456   2.013577 C.3        1 UNL1     0.0200
     40 C         0.829171   1.384951   2.039259 C.3        1 UNL1     0.0661
     41 C         1.770087   0.602928   0.864216 C.3        1 UNL1     0.0091
     42 C         3.475373   0.947645   0.282346 C.3        1 UNL1     0.0661
     43 C         7.527161   7.376399   -3.993577 C.2        1 UNL1     0.2131
     44 O         7.928263   8.268043   -4.719404 O.2        1 UNL1     -0.2851
     45 O         7.219384   9.894461   -2.797951 O.3        1 UNL1     -0.5056
     46 O         3.986866   4.716536   -0.558086 O.2        1 UNL1     -0.2836
     47 C         5.593814   1.275411   1.870612 C.3        1 UNL1     -0.0566
     48 O         3.911773   -0.467204   0.365253 O.3        1 UNL1     -0.3909
     49 C         0.921822   0.373329   -0.366729 C.3        1 UNL1     -0.0577
     50 O         1.444273   2.598722   2.421532 O.3        1 UNL1     -0.3910
     51 O         -0.74679   4.408592   2.201398 O.3        1 UNL1     -0.3753
     52 C         0.071734   3.156331   -1.243299 C.3        1 UNL1     -0.0564
     53 O         -2.185176   1.041467   -0.172745 O.3        1 UNL1     -0.4608
     54 C         -2.415816   -0.265254   0.169623 C.2        1 UNL1     0.3042
     55 O         -1.855592   -1.264811   -0.278564 O.2        1 UNL1     -0.2512
     56 C         -3.43804   -0.430365   1.257975 C.3        1 UNL1     0.0332
     57 C         -1.533548   2.225959   3.279131 C.3        1 UNL1     -0.0567
     58 C         1.898295   7.174899   -1.229953 C.3        1 UNL1     0.0210
     59 C         -1.041988   5.593219   2.939899 C.3        1 UNL1     0.0372
     60 C         0.697932   5.207819   0.562234 C.2        1 UNL1     -0.0208
     61 C         1.623203   5.637929   1.421084 C.2        1 UNL1     0.0882
     62 H         4.721453   2.691903   0.522705 H        1 UNL1     0.0365
     63 H         6.367621   3.549331   -0.328868 H        1 UNL1     0.0576
     64 H         8.34421   1.408422   -1.332055 H        1 UNL1     0.0615
     65 H         8.303655   4.525563   -1.531159 H        1 UNL1     0.0622
     66 H         -1.375227   5.344018   0.502216 H        1 UNL1     0.0645
     67 H         -1.828552   3.645745   -0.685459 H        1 UNL1     0.0362
     68 H         -2.503963   2.525157   1.076381 H        1 UNL1     0.0741
     69 H         -1.169796   0.53834   2.216092 H        1 UNL1     0.0359
     70 H         0.94344   0.726963   2.9219 H        1 UNL1     0.0600
     71 H         1.808458   -0.41697   1.294672 H        1 UNL1     0.0348
     72 H         3.383477   1.44051   1.261097 H        1 UNL1     0.0602
     73 H         0.807565   5.400048   -0.476167 H        1 UNL1     0.0628
     74 H         1.614111   5.431491   2.491849 H        1 UNL1     0.1022
     75 H         10.923448   2.136745   -3.567454 H        1 UNL1     0.0279
     76 H         10.796787   3.347988   -4.77995 H        1 UNL1     0.0279
     77 H         11.918159   3.519655   -3.369861 H        1 UNL1     0.0279
     78 H         9.060847   4.70228   -5.126737 H        1 UNL1     0.1553
     79 H         7.77231   3.243678   -4.754747 H        1 UNL1     0.1484
     80 H         4.016543   2.674625   -4.854165 H        1 UNL1     0.0317
     81 H         4.760626   4.193718   -5.332309 H        1 UNL1     0.0317
     82 H         6.651009   2.982491   -6.45172 H        1 UNL1     0.0428
     83 H         5.084725   2.51822   -7.078543 H        1 UNL1     0.0428
     84 H         6.866798   -0.123915   -4.259594 H        1 UNL1     0.0428
     85 H         7.785402   1.277069   -4.686832 H        1 UNL1     0.0428
     86 H         6.514439   1.36913   -2.541831 H        1 UNL1     0.0317
     87 H         5.009023   1.152653   -3.309434 H        1 UNL1     0.0317
     88 H         7.201266   0.786337   -7.451963 H        1 UNL1     0.0429
     89 H         6.832732   -0.694486   -6.564506 H        1 UNL1     0.0429
     90 H         4.292236   0.190304   -7.360244 H        1 UNL1     0.0308
     91 H         6.259776   0.841428   -9.631727 H        1 UNL1     0.0233
     92 H         4.486708   0.757103   -9.788621 H        1 UNL1     0.0233
     93 H         5.227554   2.008318   -8.813832 H        1 UNL1     0.0233
     94 H         4.506668   -1.584126   -9.139054 H        1 UNL1     0.0233
     95 H         6.199553   -1.757052   -8.650621 H        1 UNL1     0.0233
     96 H         4.899549   -2.095819   -7.484766 H        1 UNL1     0.0233
     97 H         4.232027   10.482864   -0.178849 H        1 UNL1     0.0280
     98 H         5.845003   11.083266   -0.452734 H        1 UNL1     0.0280
     99 H         4.656832   11.090303   -1.789869 H        1 UNL1     0.0280
     100 H         6.756165   10.648631   -3.11776 H        1 UNL1     0.2922
     101 H         4.729014   0.863103   2.390015 H        1 UNL1     0.0236
     102 H         6.068572   2.075273   2.437895 H        1 UNL1     0.0236
     103 H         6.333382   0.457361   1.865416 H        1 UNL1     0.0236
     104 H         4.333223   -0.595243   1.237581 H        1 UNL1     0.2098
     105 H         0.711857   1.271893   -0.941454 H        1 UNL1     0.0234
     106 H         1.277594   -0.420541   -1.023329 H        1 UNL1     0.0234
     107 H         0.0   -0.0   0.0 H        1 UNL1     0.0234
     108 H         1.259933   3.251298   1.718729 H        1 UNL1     0.2098
     109 H         1.100688   3.047261   -0.873069 H        1 UNL1     0.0234
     110 H         -0.168191   2.321181   -1.91016 H        1 UNL1     0.0234
     111 H         0.085763   4.031251   -1.906823 H        1 UNL1     0.0234
     112 H         -3.559009   -1.491278   1.49709 H        1 UNL1     0.0342
     113 H         -3.185378   0.144348   2.147756 H        1 UNL1     0.0342
     114 H         -4.401306   -0.05761   0.883358 H        1 UNL1     0.0342
     115 H         -2.60498   1.987671   3.328544 H        1 UNL1     0.0234
     116 H         -1.090363   1.945852   4.236824 H        1 UNL1     0.0234
     117 H         -1.562529   3.327931   3.226594 H        1 UNL1     0.0234
     118 H         1.005128   7.670227   -0.810538 H        1 UNL1     0.0309
     119 H         2.26439   7.757549   -2.081244 H        1 UNL1     0.0309
     120 H         1.498198   6.244964   -1.648582 H        1 UNL1     0.0309
     121 H         -0.198756   6.273386   2.822895 H        1 UNL1     0.0524
     122 H         -1.939884   6.109418   2.561271 H        1 UNL1     0.0524
     123 H         -1.188559   5.355003   3.989597 H        1 UNL1     0.0524
@<TRIPOS>BOND
     1     1     2    1
     2     1    42    1
     3     2     3    2
     4     3     4    1
     5     4     5    2
     6     5     7    1
     7     6    75    1
     8     6    76    1
     9     6    77    1
    10     7     9   am
    11     9    10    1
    12    10    11    2
    13    10    43    1
    14    11    14    1
    15    11    15    1
    16    12    13   ar
    17    12    27   ar
    18    12    43    1
    19    13    14    1
    20    13    30   ar
    21    14    17    2
    22    15    16    1
    23    16    17    1
    24    16    18    1
    25    16    22    1
    26    18    19    1
    27    19    20    1
    28    20    21    1
    29    21    22    1
    30    23    24    1
    31    23    88    1
    32    23    89    1
    33    24    25    1
    34    24    26    1
    35    24    90    1
    36    25    91    1
    37    25    92    1
    38    25    93    1
    39    26    94    1
    40    26    95    1
    41    26    96    1
    42    27    28   ar
    43    28    29   ar
    44    29    30   ar
    45    29    31    1
    46    30    33    1
    47    31    32    1
    48    32    33    1
    49    32    35    1
    50    34    97    1
    51    34    98    1
    52    34    99    1
    53    35    61    1
    54    36    37    1
    55    36    60    1
    56    37    38    1
    57    38    39    1
    58    39    40    1
    59    40    41    1
    60    41    42    1
    61    45   100    1
    62    47   101    1
    63    47   102    1
    64    47   103    1
    65    48   104    1
    66    49   105    1
    67    49   106    1
    68    49   107    1
    69    50   108    1
    70    51    59    1
    71    52   109    1
    72    52   110    1
    73    52   111    1
    74    53    54    1
    75    54    55    2
    76    54    56    1
    77    56   112    1
    78    56   113    1
    79    56   114    1
    80    57   115    1
    81    57   116    1
    82    57   117    1
    83    58   118    1
    84    58   119    1
    85    58   120    1
    86    59   121    1
    87    59   122    1
    88    59   123    1
    89    60    61    2
    90     1    47    1
    91     1    62    1
    92     2    63    1
    93     3    64    1
    94     4    65    1
    95     5     6    1
    96     7     8    2
    97     9    78    1
    98    15    79    1
    99    18    80    1
   100    18    81    1
   101    19    82    1
   102    19    83    1
   103    20    23    1
   104    21    84    1
   105    21    85    1
   106    22    86    1
   107    22    87    1
   108    27    45    1
   109    28    34    1
   110    32    58    1
   111    33    46    2
   112    36    51    1
   113    36    66    1
   114    37    52    1
   115    37    67    1
   116    38    53    1
   117    38    68    1
   118    42    48    1
   119    42    72    1
   120    43    44    2
   121    60    73    1
   122    61    74    1
   123    39    69    1
   124    39    57    1
   125    40    70    1
   126    40    50    1
   127    41    71    1
   128    41    49    1
