@<TRIPOS>MOLECULE
*****
 123 128 0 0 0
SMALL
GASTEIGER

@<TRIPOS>ATOM
     1 C         5.114574   1.907145   0.464419 C.3        1 UNL1     0.0009
     2 C         6.503504   2.7956   -0.383259 C.2        1 UNL1     -0.0787
     3 C         7.778572   2.76947   -1.068506 C.2        1 UNL1     -0.0649
     4 C         8.592115   4.060147   -1.80244 C.2        1 UNL1     -0.0542
     5 C         9.585155   4.420376   -2.746466 C.2        1 UNL1     0.0115
     6 C         10.726011   3.866348   -3.643585 C.3        1 UNL1     -0.0348
     7 C         9.609075   5.92172   -3.314254 C.2        1 UNL1     0.2441
     8 O         10.403   6.767478   -2.925792 O.2        1 UNL1     -0.2702
     9 N         8.833865   6.127194   -4.468802 N.am        1 UNL1     -0.2772
     10 C         7.540688   6.450641   -4.127632 C.2        1 UNL1     0.1049
     11 C         6.740925   5.436836   -3.850504 C.2        1 UNL1     0.0801
     12 C         6.196376   7.963141   -2.657087 C.ar        1 UNL1     0.0753
     13 C         5.49211   6.792642   -2.229827 C.ar        1 UNL1     0.0305
     14 C         5.654574   5.510444   -2.911461 C.2        1 UNL1     0.0924
     15 N         6.91712   4.118896   -4.046758 N.pl3        1 UNL1     -0.3170
     16 C         5.678339   3.458258   -3.731741 C.3        1 UNL1     0.1275
     17 N         5.016554   4.359581   -2.718143 N.2        1 UNL1     -0.2557
     18 C         4.805487   3.514092   -4.981826 C.3        1 UNL1     0.0016
     19 C         5.572048   2.892504   -6.138374 C.3        1 UNL1     0.0026
     20 N         5.905607   1.517501   -5.793218 N.3        1 UNL1     -0.3018
     21 C         6.692973   1.357303   -4.56898 C.3        1 UNL1     0.0026
     22 C         5.902191   1.984495   -3.419551 C.3        1 UNL1     0.0016
     23 C         6.368085   0.746945   -6.930321 C.3        1 UNL1     0.0012
     24 C         5.210031   0.474378   -7.903139 C.3        1 UNL1     -0.0339
     25 C         5.526754   0.995526   -9.314574 C.3        1 UNL1     -0.0615
     26 C         4.878445   -1.007739   -7.915847 C.3        1 UNL1     -0.0615
     27 C         5.946335   9.20642   -2.081019 C.ar        1 UNL1     0.1347
     28 C         4.990821   9.409718   -1.10137 C.ar        1 UNL1     0.0342
     29 C         4.344458   8.234799   -0.662116 C.ar        1 UNL1     0.1435
     30 C         4.610367   6.976937   -1.204606 C.ar        1 UNL1     0.0774
     31 O         3.312119   8.281616   0.207994 O.3        1 UNL1     -0.4436
     32 C         2.641049   7.023376   0.042564 C.3        1 UNL1     0.3143
     33 C         3.687457   6.088523   -0.529531 C.2        1 UNL1     0.2504
     34 C         4.493259   10.743581   -0.618317 C.3        1 UNL1     -0.0327
     35 O         2.318307   6.537422   1.351357 O.2        1 UNL1     -0.4528
     36 C         -0.845852   4.480159   0.94657 C.3        1 UNL1     0.0854
     37 C         -1.110774   3.231663   0.019964 C.3        1 UNL1     0.0236
     38 C         -1.646132   1.92603   0.781841 C.3        1 UNL1     0.1131
     39 C         -0.879801   1.392539   2.05871 C.3        1 UNL1     0.0200
     40 C         0.786472   1.316721   2.073674 C.3        1 UNL1     0.0661
     41 C         1.760296   0.620238   0.87193 C.3        1 UNL1     0.0091
     42 C         3.442706   1.069705   0.294974 C.3        1 UNL1     0.0661
     43 C         7.137929   7.825435   -3.795847 C.2        1 UNL1     0.2131
     44 O         7.48912   8.758204   -4.495378 O.2        1 UNL1     -0.2851
     45 O         6.707505   10.286772   -2.522491 O.3        1 UNL1     -0.5056
     46 O         3.756053   4.883746   -0.431247 O.2        1 UNL1     -0.2836
     47 C         5.549553   1.457405   1.885161 C.3        1 UNL1     -0.0566
     48 O         3.951481   -0.322712   0.332929 O.3        1 UNL1     -0.3909
     49 C         0.91871   0.384932   -0.362517 C.3        1 UNL1     -0.0577
     50 O         1.340462   2.548299   2.49085 O.3        1 UNL1     -0.3910
     51 O         -0.941591   4.249024   2.333956 O.3        1 UNL1     -0.3753
     52 C         -0.077354   3.145963   -1.150355 C.3        1 UNL1     -0.0564
     53 O         -2.217436   0.886277   -0.137318 O.3        1 UNL1     -0.4608
     54 C         -2.360254   -0.444203   0.158244 C.2        1 UNL1     0.3042
     55 O         -1.650837   -1.374331   -0.223104 O.2        1 UNL1     -0.2512
     56 C         -3.493304   -0.732454   1.101548 C.3        1 UNL1     0.0332
     57 C         -1.609963   1.997034   3.346973 C.3        1 UNL1     -0.0567
     58 C         1.540828   7.250829   -1.020125 C.3        1 UNL1     0.0210
     59 C         -1.293399   5.393874   3.109466 C.3        1 UNL1     0.0372
     60 C         0.451958   5.170993   0.715057 C.2        1 UNL1     -0.0208
     61 C         1.358289   5.621739   1.583468 C.2        1 UNL1     0.0882
     62 H         4.598922   2.867574   0.584377 H        1 UNL1     0.0365
     63 H         6.194645   3.834011   -0.246224 H        1 UNL1     0.0576
     64 H         8.2733   1.829067   -1.321474 H        1 UNL1     0.0615
     65 H         8.071986   4.944619   -1.42474 H        1 UNL1     0.0622
     66 H         -1.625734   5.202219   0.666461 H        1 UNL1     0.0645
     67 H         -1.99739   3.519845   -0.571156 H        1 UNL1     0.0362
     68 H         -2.605555   2.312895   1.157827 H        1 UNL1     0.0741
     69 H         -1.165543   0.363495   2.231415 H        1 UNL1     0.0359
     70 H         0.938782   0.638905   2.935316 H        1 UNL1     0.0600
     71 H         1.853078   -0.408975   1.270768 H        1 UNL1     0.0348
     72 H         3.330608   1.527163   1.288695 H        1 UNL1     0.0602
     73 H         0.546345   5.400133   -0.317336 H        1 UNL1     0.0628
     74 H         1.365201   5.382596   2.647423 H        1 UNL1     0.1022
     75 H         10.76753   2.75214   -3.581523 H        1 UNL1     0.0279
     76 H         10.6288   4.037929   -4.713248 H        1 UNL1     0.0279
     77 H         11.726191   4.141271   -3.277855 H        1 UNL1     0.0279
     78 H         8.800951   5.269426   -5.015821 H        1 UNL1     0.1553
     79 H         7.590782   3.735874   -4.684258 H        1 UNL1     0.1484
     80 H         3.868673   2.977826   -4.788007 H        1 UNL1     0.0317
     81 H         4.531473   4.54701   -5.221923 H        1 UNL1     0.0317
     82 H         6.475789   3.469194   -6.38453 H        1 UNL1     0.0428
     83 H         4.932219   2.944336   -7.019841 H        1 UNL1     0.0428
     84 H         6.861621   0.312676   -4.289472 H        1 UNL1     0.0428
     85 H         7.705023   1.771382   -4.676737 H        1 UNL1     0.0428
     86 H         6.441862   1.732637   -2.52551 H        1 UNL1     0.0317
     87 H         4.945667   1.462545   -3.294146 H        1 UNL1     0.0317
     88 H         7.132854   1.335703   -7.453567 H        1 UNL1     0.0429
     89 H         6.84521   -0.188441   -6.610667 H        1 UNL1     0.0429
     90 H         4.308036   0.979986   -7.538477 H        1 UNL1     0.0308
     91 H         6.536051   0.710718   -9.626516 H        1 UNL1     0.0233
     92 H         4.805413   0.610779   -10.039312 H        1 UNL1     0.0233
     93 H         5.470741   2.088975   -9.378346 H        1 UNL1     0.0233
     94 H         4.271604   -1.251489   -8.794576 H        1 UNL1     0.0233
     95 H         5.798818   -1.596087   -7.968018 H        1 UNL1     0.0233
     96 H         4.322915   -1.300055   -7.020355 H        1 UNL1     0.0233
     97 H         3.658078   10.642598   0.068346 H        1 UNL1     0.0280
     98 H         5.26582   11.300354   -0.072048 H        1 UNL1     0.0280
     99 H         4.162017   11.347602   -1.478859 H        1 UNL1     0.0280
     100 H         6.207728   11.051413   -2.748698 H        1 UNL1     0.2922
     101 H         4.686347   1.076658   2.430655 H        1 UNL1     0.0236
     102 H         6.073026   2.235581   2.439599 H        1 UNL1     0.0236
     103 H         6.256096   0.611244   1.853502 H        1 UNL1     0.0236
     104 H         4.302177   -0.48423   1.230645 H        1 UNL1     0.2098
     105 H         0.700423   1.282875   -0.935108 H        1 UNL1     0.0234
     106 H         1.285618   -0.402759   -1.020428 H        1 UNL1     0.0234
     107 H         0.0   -0.0   0.0 H        1 UNL1     0.0234
     108 H         1.15852   3.201231   1.787753 H        1 UNL1     0.2098
     109 H         0.957696   3.0787   -0.787229 H        1 UNL1     0.0234
     110 H         -0.277513   2.32028   -1.841677 H        1 UNL1     0.0234
     111 H         -0.11155   4.040246   -1.786778 H        1 UNL1     0.0234
     112 H         -3.53883   -1.805355   1.311681 H        1 UNL1     0.0342
     113 H         -3.415828   -0.156853   2.022702 H        1 UNL1     0.0342
     114 H         -4.432091   -0.44583   0.607898 H        1 UNL1     0.0342
     115 H         -2.691191   1.802286   3.332583 H        1 UNL1     0.0234
     116 H         -1.221105   1.62057   4.295189 H        1 UNL1     0.0234
     117 H         -1.592565   3.099826   3.385538 H        1 UNL1     0.0234
     118 H         0.533271   7.295174   -0.570826 H        1 UNL1     0.0309
     119 H         1.704404   8.150263   -1.622174 H        1 UNL1     0.0309
     120 H         1.464308   6.420291   -1.730377 H        1 UNL1     0.0309
     121 H         -0.900657   5.24443   4.11484 H        1 UNL1     0.0524
     122 H         -0.846926   6.321003   2.71307 H        1 UNL1     0.0524
     123 H         -2.373173   5.508419   3.142043 H        1 UNL1     0.0524
@<TRIPOS>BOND
     1     1     2    1
     2     1    42    1
     3     2     3    2
     4     3     4    1
     5     4     5    2
     6     5     7    1
     7     6    75    1
     8     6    76    1
     9     6    77    1
    10     7     9   am
    11     9    10    1
    12    10    11    2
    13    10    43    1
    14    11    14    1
    15    11    15    1
    16    12    13   ar
    17    12    27   ar
    18    12    43    1
    19    13    14    1
    20    13    30   ar
    21    14    17    2
    22    15    16    1
    23    16    17    1
    24    16    18    1
    25    16    22    1
    26    18    19    1
    27    19    20    1
    28    20    21    1
    29    21    22    1
    30    23    24    1
    31    23    88    1
    32    23    89    1
    33    24    25    1
    34    24    26    1
    35    24    90    1
    36    25    91    1
    37    25    92    1
    38    25    93    1
    39    26    94    1
    40    26    95    1
    41    26    96    1
    42    27    28   ar
    43    28    29   ar
    44    29    30   ar
    45    29    31    1
    46    30    33    1
    47    31    32    1
    48    32    33    1
    49    32    35    1
    50    34    97    1
    51    34    98    1
    52    34    99    1
    53    35    61    1
    54    36    37    1
    55    36    60    1
    56    37    38    1
    57    38    39    1
    58    39    40    1
    59    40    41    1
    60    41    42    1
    61    45   100    1
    62    47   101    1
    63    47   102    1
    64    47   103    1
    65    48   104    1
    66    49   105    1
    67    49   106    1
    68    49   107    1
    69    50   108    1
    70    51    59    1
    71    52   109    1
    72    52   110    1
    73    52   111    1
    74    53    54    1
    75    54    55    2
    76    54    56    1
    77    56   112    1
    78    56   113    1
    79    56   114    1
    80    57   115    1
    81    57   116    1
    82    57   117    1
    83    58   118    1
    84    58   119    1
    85    58   120    1
    86    59   121    1
    87    59   122    1
    88    59   123    1
    89    60    61    2
    90     1    47    1
    91     1    62    1
    92     2    63    1
    93     3    64    1
    94     4    65    1
    95     5     6    1
    96     7     8    2
    97     9    78    1
    98    15    79    1
    99    18    80    1
   100    18    81    1
   101    19    82    1
   102    19    83    1
   103    20    23    1
   104    21    84    1
   105    21    85    1
   106    22    86    1
   107    22    87    1
   108    27    45    1
   109    28    34    1
   110    32    58    1
   111    33    46    2
   112    36    51    1
   113    36    66    1
   114    37    52    1
   115    37    67    1
   116    38    53    1
   117    38    68    1
   118    42    48    1
   119    42    72    1
   120    43    44    2
   121    60    73    1
   122    61    74    1
   123    39    69    1
   124    39    57    1
   125    40    70    1
   126    40    50    1
   127    41    71    1
   128    41    49    1
