@<TRIPOS>MOLECULE
*****
 123 128 0 0 0
SMALL
GASTEIGER

@<TRIPOS>ATOM
     1 C         5.135854   1.816532   0.567876 C.3        1 UNL1     0.0009
     2 C         6.572358   2.646532   -0.259526 C.2        1 UNL1     -0.0787
     3 C         7.864057   2.569269   -0.908826 C.2        1 UNL1     -0.0649
     4 C         8.734303   3.820125   -1.646654 C.2        1 UNL1     -0.0542
     5 C         9.762409   4.131489   -2.570304 C.2        1 UNL1     0.0115
     6 C         10.910294   3.52596   -3.424129 C.3        1 UNL1     -0.0348
     7 C         9.845337   5.619016   -3.168112 C.2        1 UNL1     0.2441
     8 O         10.652876   6.449863   -2.775555 O.2        1 UNL1     -0.2702
     9 N         9.107722   5.821769   -4.347504 N.am        1 UNL1     -0.2772
     10 C         7.815836   6.189299   -4.048717 C.2        1 UNL1     0.1049
     11 C         6.979695   5.204951   -3.772765 C.2        1 UNL1     0.0801
     12 C         6.477215   7.7708   -2.647187 C.ar        1 UNL1     0.0753
     13 C         5.727897   6.630346   -2.215335 C.ar        1 UNL1     0.0305
     14 C         5.871138   5.329706   -2.86562 C.2        1 UNL1     0.0924
     15 N         7.122584   3.878607   -3.936842 N.pl3        1 UNL1     -0.3170
     16 C         5.857054   3.260565   -3.642372 C.3        1 UNL1     0.1275
     17 N         5.194866   4.201966   -2.666158 N.2        1 UNL1     -0.2557
     18 C         5.020073   3.314516   -4.916834 C.3        1 UNL1     0.0016
     19 C         5.798949   2.64661   -6.038816 C.3        1 UNL1     0.0026
     20 N         6.082881   1.270349   -5.656304 N.3        1 UNL1     -0.3018
     21 C         6.832094   1.11399   -4.407865 C.3        1 UNL1     0.0026
     22 C         6.029368   1.788037   -3.293779 C.3        1 UNL1     0.0016
     23 C         6.553047   0.462682   -6.764122 C.3        1 UNL1     0.0012
     24 C         5.414069   0.202541   -7.762527 C.3        1 UNL1     -0.0339
     25 C         5.492516   1.156121   -8.9661 C.3        1 UNL1     -0.0615
     26 C         5.426963   -1.251874   -8.199892 C.3        1 UNL1     -0.0615
     27 C         6.248165   9.032786   -2.104006 C.ar        1 UNL1     0.1347
     28 C         5.273034   9.284278   -1.155364 C.ar        1 UNL1     0.0342
     29 C         4.581122   8.138009   -0.709844 C.ar        1 UNL1     0.1435
     30 C         4.824701   6.861715   -1.218731 C.ar        1 UNL1     0.0774
     31 O         3.527603   8.232969   0.130446 O.3        1 UNL1     -0.4436
     32 C         2.824806   6.991172   -0.027318 C.3        1 UNL1     0.3143
     33 C         3.858486   6.014732   -0.551039 C.2        1 UNL1     0.2504
     34 C         4.801796   10.641873   -0.713809 C.3        1 UNL1     -0.0327
     35 O         2.453013   6.542819   1.281881 O.2        1 UNL1     -0.4528
     36 C         -0.757792   4.568661   0.832966 C.3        1 UNL1     0.0854
     37 C         -1.034042   3.30867   -0.074575 C.3        1 UNL1     0.0236
     38 C         -1.627509   2.035513   0.699125 C.3        1 UNL1     0.1131
     39 C         -0.911614   1.507829   2.007297 C.3        1 UNL1     0.0200
     40 C         0.750737   1.384738   2.069562 C.3        1 UNL1     0.0661
     41 C         1.735742   0.635089   0.909648 C.3        1 UNL1     0.0091
     42 C         3.445426   1.023795   0.369933 C.3        1 UNL1     0.0661
     43 C         7.444581   7.581844   -3.756582 C.2        1 UNL1     0.2131
     44 O         7.841477   8.488978   -4.465328 O.2        1 UNL1     -0.2851
     45 O         7.052096   10.081219   -2.546638 O.3        1 UNL1     -0.5056
     46 O         3.889253   4.81087   -0.426043 O.2        1 UNL1     -0.2836
     47 C         5.519238   1.385104   2.00901 C.3        1 UNL1     -0.0566
     48 O         3.912174   -0.381465   0.450595 O.3        1 UNL1     -0.3909
     49 C         0.921093   0.397529   -0.342313 C.3        1 UNL1     -0.0577
     50 O         1.32901   2.608634   2.476259 O.3        1 UNL1     -0.3910
     51 O         -0.897439   4.370157   2.22168 O.3        1 UNL1     -0.3753
     52 C         0.027482   3.168384   -1.214064 C.3        1 UNL1     -0.0564
     53 O         -2.204013   0.993051   -0.213696 O.3        1 UNL1     -0.4608
     54 C         -2.424916   -0.318505   0.116384 C.2        1 UNL1     0.3042
     55 O         -1.835508   -1.307408   -0.317789 O.2        1 UNL1     -0.2512
     56 C         -3.477956   -0.503947   1.171576 C.3        1 UNL1     0.0332
     57 C         -1.658155   2.160436   3.262269 C.3        1 UNL1     -0.0567
     58 C         1.760609   7.227152   -1.124281 C.3        1 UNL1     0.0210
     59 C         -1.2364   5.540963   2.963425 C.3        1 UNL1     0.0372
     60 C         0.565361   5.216982   0.622947 C.2        1 UNL1     -0.0208
     61 C         1.460813   5.660146   1.506415 C.2        1 UNL1     0.0882
     62 H         4.645397   2.793663   0.653767 H        1 UNL1     0.0365
     63 H         6.290347   3.696049   -0.152501 H        1 UNL1     0.0576
     64 H         8.337761   1.609897   -1.128638 H        1 UNL1     0.0615
     65 H         8.230238   4.727002   -1.301726 H        1 UNL1     0.0622
     66 H         -1.508483   5.306552   0.516699 H        1 UNL1     0.0645
     67 H         -1.895689   3.609344   -0.695638 H        1 UNL1     0.0362
     68 H         -2.584988   2.457625   1.04056 H        1 UNL1     0.0741
     69 H         -1.231779   0.491315   2.193314 H        1 UNL1     0.0359
     70 H         0.860029   0.721475   2.948878 H        1 UNL1     0.0600
     71 H         1.787729   -0.387566   1.332057 H        1 UNL1     0.0348
     72 H         3.320082   1.505473   1.35054 H        1 UNL1     0.0602
     73 H         0.69407   5.421141   -0.410978 H        1 UNL1     0.0628
     74 H         1.432185   5.443771   2.574872 H        1 UNL1     0.1022
     75 H         10.949632   2.417087   -3.298088 H        1 UNL1     0.0279
     76 H         10.822741   3.636174   -4.502673 H        1 UNL1     0.0279
     77 H         11.907623   3.82039   -3.065873 H        1 UNL1     0.0279
     78 H         9.064501   4.953762   -4.877385 H        1 UNL1     0.1553
     79 H         7.801659   3.4629   -4.547561 H        1 UNL1     0.1484
     80 H         4.063153   2.809534   -4.73777 H        1 UNL1     0.0317
     81 H         4.782843   4.349462   -5.185648 H        1 UNL1     0.0317
     82 H         6.725406   3.191815   -6.271929 H        1 UNL1     0.0428
     83 H         5.184797   2.697804   -6.938397 H        1 UNL1     0.0428
     84 H         6.96264   0.071201   -4.102314 H        1 UNL1     0.0428
     85 H         7.858316   1.496558   -4.496328 H        1 UNL1     0.0428
     86 H         6.537271   1.540078   -2.380247 H        1 UNL1     0.0317
     87 H         5.055008   1.296458   -3.183924 H        1 UNL1     0.0317
     88 H         7.348432   1.017978   -7.278227 H        1 UNL1     0.0429
     89 H         6.993937   -0.478895   -6.412237 H        1 UNL1     0.0429
     90 H         4.452508   0.355145   -7.258219 H        1 UNL1     0.0308
     91 H         6.455586   1.071581   -9.4784 H        1 UNL1     0.0233
     92 H         4.688932   0.948403   -9.676534 H        1 UNL1     0.0233
     93 H         5.378591   2.207172   -8.674298 H        1 UNL1     0.0233
     94 H         4.74786   -1.39761   -9.046896 H        1 UNL1     0.0233
     95 H         6.432757   -1.53646   -8.521377 H        1 UNL1     0.0233
     96 H         5.114768   -1.915344   -7.388529 H        1 UNL1     0.0233
     97 H         3.993416   10.577573   0.008422 H        1 UNL1     0.0280
     98 H         5.59799   11.216972   -0.223307 H        1 UNL1     0.0280
     99 H         4.440591   11.20922   -1.587161 H        1 UNL1     0.0280
     100 H         6.579069   10.827556   -2.870442 H        1 UNL1     0.2922
     101 H         4.65257   0.948508   2.50492 H        1 UNL1     0.0236
     102 H         5.962539   2.190332   2.593882 H        1 UNL1     0.0236
     103 H         6.277303   0.584162   2.013677 H        1 UNL1     0.0236
     104 H         4.316565   -0.50786   1.331199 H        1 UNL1     0.2098
     105 H         0.703656   1.296306   -0.913919 H        1 UNL1     0.0234
     106 H         1.309777   -0.382009   -0.997425 H        1 UNL1     0.0234
     107 H         0.0   -0.0   0.0 H        1 UNL1     0.0234
     108 H         1.14573   3.26325   1.775078 H        1 UNL1     0.2098
     109 H         1.050009   3.079355   -0.821349 H        1 UNL1     0.0234
     110 H         -0.178042   2.334128   -1.893417 H        1 UNL1     0.0234
     111 H         0.036478   4.049428   -1.869523 H        1 UNL1     0.0234
     112 H         -3.589847   -1.5676   1.40281 H        1 UNL1     0.0342
     113 H         -3.262172   0.070819   2.070979 H        1 UNL1     0.0342
     114 H         -4.43472   -0.144493   0.768388 H        1 UNL1     0.0342
     115 H         -2.724683   1.897407   3.285104 H        1 UNL1     0.0234
     116 H         -1.230487   1.881732   4.227398 H        1 UNL1     0.0234
     117 H         -1.711208   3.261898   3.218589 H        1 UNL1     0.0234
     118 H         0.847036   7.698188   -0.72115 H        1 UNL1     0.0309
     119 H         2.132449   7.825735   -1.961918 H        1 UNL1     0.0309
     120 H         1.391543   6.292229   -1.559958 H        1 UNL1     0.0309
     121 H         -0.406557   6.241168   2.871611 H        1 UNL1     0.0524
     122 H         -2.137085   6.040054   2.568823 H        1 UNL1     0.0524
     123 H         -1.401229   5.289887   4.007401 H        1 UNL1     0.0524
@<TRIPOS>BOND
     1     1     2    1
     2     1    42    1
     3     2     3    2
     4     3     4    1
     5     4     5    2
     6     5     7    1
     7     6    75    1
     8     6    76    1
     9     6    77    1
    10     7     9   am
    11     9    10    1
    12    10    11    2
    13    10    43    1
    14    11    14    1
    15    11    15    1
    16    12    13   ar
    17    12    27   ar
    18    12    43    1
    19    13    14    1
    20    13    30   ar
    21    14    17    2
    22    15    16    1
    23    16    17    1
    24    16    18    1
    25    16    22    1
    26    18    19    1
    27    19    20    1
    28    20    21    1
    29    21    22    1
    30    23    24    1
    31    23    88    1
    32    23    89    1
    33    24    25    1
    34    24    26    1
    35    24    90    1
    36    25    91    1
    37    25    92    1
    38    25    93    1
    39    26    94    1
    40    26    95    1
    41    26    96    1
    42    27    28   ar
    43    28    29   ar
    44    29    30   ar
    45    29    31    1
    46    30    33    1
    47    31    32    1
    48    32    33    1
    49    32    35    1
    50    34    97    1
    51    34    98    1
    52    34    99    1
    53    35    61    1
    54    36    37    1
    55    36    60    1
    56    37    38    1
    57    38    39    1
    58    39    40    1
    59    40    41    1
    60    41    42    1
    61    45   100    1
    62    47   101    1
    63    47   102    1
    64    47   103    1
    65    48   104    1
    66    49   105    1
    67    49   106    1
    68    49   107    1
    69    50   108    1
    70    51    59    1
    71    52   109    1
    72    52   110    1
    73    52   111    1
    74    53    54    1
    75    54    55    2
    76    54    56    1
    77    56   112    1
    78    56   113    1
    79    56   114    1
    80    57   115    1
    81    57   116    1
    82    57   117    1
    83    58   118    1
    84    58   119    1
    85    58   120    1
    86    59   121    1
    87    59   122    1
    88    59   123    1
    89    60    61    2
    90     1    47    1
    91     1    62    1
    92     2    63    1
    93     3    64    1
    94     4    65    1
    95     5     6    1
    96     7     8    2
    97     9    78    1
    98    15    79    1
    99    18    80    1
   100    18    81    1
   101    19    82    1
   102    19    83    1
   103    20    23    1
   104    21    84    1
   105    21    85    1
   106    22    86    1
   107    22    87    1
   108    27    45    1
   109    28    34    1
   110    32    58    1
   111    33    46    2
   112    36    51    1
   113    36    66    1
   114    37    52    1
   115    37    67    1
   116    38    53    1
   117    38    68    1
   118    42    48    1
   119    42    72    1
   120    43    44    2
   121    60    73    1
   122    61    74    1
   123    39    69    1
   124    39    57    1
   125    40    70    1
   126    40    50    1
   127    41    71    1
   128    41    49    1
