@<TRIPOS>MOLECULE
*****
 123 128 0 0 0
SMALL
GASTEIGER

@<TRIPOS>ATOM
     1 C         1.683174   2.185515   4.625513 C.3        1 UNL1     0.0009
     2 C         1.274727   3.341799   6.015914 C.2        1 UNL1     -0.0787
     3 C         1.313486   4.665326   6.601424 C.2        1 UNL1     -0.0649
     4 C         0.574282   5.193183   8.030165 C.2        1 UNL1     -0.0542
     5 C         0.12403   6.323931   8.755257 C.2        1 UNL1     0.0115
     6 C         0.146641   7.87651   8.803317 C.3        1 UNL1     -0.0348
     7 C         -0.923338   6.112016   9.953215 C.2        1 UNL1     0.2441
     8 O         -0.5978   6.127897   11.132324 O.2        1 UNL1     -0.2702
     9 N         -2.274892   6.167711   9.570656 N.am        1 UNL1     -0.2772
     10 C         -2.715856   4.923336   9.182836 C.2        1 UNL1     0.1049
     11 C         -2.446042   4.57188   7.938689 C.2        1 UNL1     0.0801
     12 C         -2.760107   2.52478   9.891568 C.ar        1 UNL1     0.0753
     13 C         -2.26448   2.211277   8.585934 C.ar        1 UNL1     0.0305
     14 C         -2.216844   3.214232   7.524397 C.2        1 UNL1     0.0924
     15 N         -1.99118   5.310212   6.911804 N.pl3        1 UNL1     -0.3170
     16 C         -2.031354   4.490834   5.729746 C.3        1 UNL1     0.1275
     17 N         -1.88566   3.079211   6.243376 N.2        1 UNL1     -0.2557
     18 C         -3.442577   4.590091   5.158519 C.3        1 UNL1     0.0016
     19 C         -3.767854   6.055649   4.917845 C.3        1 UNL1     0.0026
     20 N         -2.787868   6.606364   3.991904 N.3        1 UNL1     -0.3018
     21 C         -1.393602   6.50093   4.426961 C.3        1 UNL1     0.0026
     22 C         -1.087162   5.020247   4.658405 C.3        1 UNL1     0.0016
     23 C         -3.174437   7.900145   3.465273 C.3        1 UNL1     0.0012
     24 C         -4.492335   8.368864   4.101829 C.3        1 UNL1     -0.0339
     25 C         -4.707624   9.878152   3.902439 C.3        1 UNL1     -0.0615
     26 C         -5.653736   7.560782   3.549624 C.3        1 UNL1     -0.0615
     27 C         -2.915551   1.536779   10.861006 C.ar        1 UNL1     0.1347
     28 C         -2.647443   0.199283   10.630198 C.ar        1 UNL1     0.0342
     29 C         -2.114411   -0.078467   9.353524 C.ar        1 UNL1     0.1435
     30 C         -1.919193   0.906405   8.384434 C.ar        1 UNL1     0.0774
     31 O         -1.904993   -1.346707   8.93793 O.3        1 UNL1     -0.4436
     32 C         -1.83111   -1.252028   7.507388 C.3        1 UNL1     0.3143
     33 C         -1.438444   0.184071   7.225175 C.2        1 UNL1     0.2504
     34 C         -3.024966   -0.94381   11.530706 C.3        1 UNL1     -0.0327
     35 O         -0.737804   -2.074779   7.081931 O.2        1 UNL1     -0.4528
     36 C         -1.654515   -3.311075   3.612161 C.3        1 UNL1     0.0854
     37 C         -2.008017   -2.479644   2.31938 C.3        1 UNL1     0.0236
     38 C         -1.115281   -2.820493   1.031518 C.3        1 UNL1     0.1131
     39 C         0.462081   -2.83146   1.150171 C.3        1 UNL1     0.0200
     40 C         1.254754   -1.626117   1.987582 C.3        1 UNL1     0.0661
     41 C         1.017012   0.041944   1.790957 C.3        1 UNL1     0.0091
     42 C         1.133484   1.411901   3.005475 C.3        1 UNL1     0.0661
     43 C         -3.187706   3.921991   10.150833 C.2        1 UNL1     0.2131
     44 O         -3.963223   4.235305   11.035788 O.2        1 UNL1     -0.2851
     45 O         -3.3605   1.933167   12.120504 O.3        1 UNL1     -0.5056
     46 O         -0.843082   0.628523   6.269215 O.2        1 UNL1     -0.2836
     47 C         3.192163   1.82189   4.652157 C.3        1 UNL1     -0.0566
     48 O         1.954684   2.276044   2.123429 O.3        1 UNL1     -0.3909
     49 C         -0.250188   0.263868   0.99569 C.3        1 UNL1     -0.0577
     50 O         1.339444   -1.943361   3.362321 O.3        1 UNL1     -0.3910
     51 O         -0.499243   -4.11492   3.530858 O.3        1 UNL1     -0.3753
     52 C         -2.440383   -1.017941   2.667855 C.3        1 UNL1     -0.0564
     53 O         -1.685023   -2.290137   -0.251619 O.3        1 UNL1     -0.4608
     54 C         -1.46218   -1.038524   -0.763222 C.2        1 UNL1     0.3042
     55 O         -0.694295   -0.180379   -0.329887 O.2        1 UNL1     -0.2512
     56 C         -2.227328   -0.759837   -2.025599 C.3        1 UNL1     0.0332
     57 C         0.915558   -4.342794   1.411708 C.3        1 UNL1     -0.0567
     58 C         -3.264685   -1.490358   6.978625 C.3        1 UNL1     0.0210
     59 C         -0.223662   -4.638743   2.232578 C.3        1 UNL1     0.0372
     60 C         -1.533438   -2.510593   4.861053 C.2        1 UNL1     -0.0208
     61 C         -0.615592   -2.550538   5.827855 C.2        1 UNL1     0.0882
     62 H         1.158991   1.38559   5.162228 H        1 UNL1     0.0365
     63 H         0.825775   2.649509   6.731209 H        1 UNL1     0.0576
     64 H         1.714221   5.521701   6.054486 H        1 UNL1     0.0615
     65 H         0.284037   4.265832   8.531425 H        1 UNL1     0.0622
     66 H         -2.520124   -3.971939   3.760572 H        1 UNL1     0.0645
     67 H         -2.994315   -2.868532   2.011903 H        1 UNL1     0.0362
     68 H         -1.40385   -3.871924   0.880709 H        1 UNL1     0.0741
     69 H         0.886282   -2.749489   0.158333 H        1 UNL1     0.0359
     70 H         2.283185   -1.773363   1.605865 H        1 UNL1     0.0600
     71 H         1.791813   0.25921   1.02975 H        1 UNL1     0.0348
     72 H         1.689938   0.570438   3.443213 H        1 UNL1     0.0602
     73 H         -2.405749   -1.917492   4.981685 H        1 UNL1     0.0628
     74 H         0.331502   -3.086509   5.757238 H        1 UNL1     0.1022
     75 H         0.418782   8.233137   9.825956 H        1 UNL1     0.0279
     76 H         0.887094   8.370495   8.178194 H        1 UNL1     0.0279
     77 H         -0.85174   8.320461   8.677444 H        1 UNL1     0.0279
     78 H         -2.379271   6.791892   8.773424 H        1 UNL1     0.1553
     79 H         -2.041116   6.311953   6.88093 H        1 UNL1     0.1484
     80 H         -3.493535   4.010597   4.228811 H        1 UNL1     0.0317
     81 H         -4.174023   4.148328   5.843708 H        1 UNL1     0.0317
     82 H         -3.789786   6.627417   5.857267 H        1 UNL1     0.0428
     83 H         -4.778938   6.10361   4.51231 H        1 UNL1     0.0428
     84 H         -0.673475   6.848757   3.679803 H        1 UNL1     0.0428
     85 H         -1.190912   7.128955   5.305493 H        1 UNL1     0.0428
     86 H         -0.030431   4.968926   4.844611 H        1 UNL1     0.0317
     87 H         -1.207264   4.461908   3.721959 H        1 UNL1     0.0317
     88 H         -2.387199   8.621686   3.720084 H        1 UNL1     0.0429
     89 H         -3.249076   7.878888   2.370398 H        1 UNL1     0.0429
     90 H         -4.466163   8.159009   5.177696 H        1 UNL1     0.0308
     91 H         -5.527137   10.074232   3.204547 H        1 UNL1     0.0233
     92 H         -4.923485   10.36679   4.855459 H        1 UNL1     0.0233
     93 H         -3.818736   10.376895   3.497507 H        1 UNL1     0.0233
     94 H         -5.998493   6.836595   4.295634 H        1 UNL1     0.0233
     95 H         -6.490324   8.223632   3.31148 H        1 UNL1     0.0233
     96 H         -5.366771   7.015898   2.645898 H        1 UNL1     0.0233
     97 H         -3.195828   -0.618295   12.552507 H        1 UNL1     0.0280
     98 H         -3.954805   -1.432443   11.211498 H        1 UNL1     0.0280
     99 H         -2.215106   -1.691595   11.537104 H        1 UNL1     0.0280
     100 H         -2.6748   2.146032   12.728884 H        1 UNL1     0.2922
     101 H         3.654644   2.10213   3.705989 H        1 UNL1     0.0236
     102 H         3.377218   0.778332   4.904596 H        1 UNL1     0.0236
     103 H         3.743441   2.397423   5.414422 H        1 UNL1     0.0236
     104 H         2.234099   3.051898   2.647784 H        1 UNL1     0.2098
     105 H         -1.088153   -0.356409   1.303719 H        1 UNL1     0.0234
     106 H         -0.560733   1.305504   0.915172 H        1 UNL1     0.0234
     107 H         0.0   0.0   -0.0 H        1 UNL1     0.0234
     108 H         0.897188   -1.22453   3.853706 H        1 UNL1     0.2098
     109 H         -3.483877   -0.815161   2.389086 H        1 UNL1     0.0234
     110 H         -2.28665   -0.76338   3.722041 H        1 UNL1     0.0234
     111 H         -1.838324   -0.277405   2.124645 H        1 UNL1     0.0234
     112 H         -1.553   -0.80136   -2.886356 H        1 UNL1     0.0342
     113 H         -3.067339   -1.440793   -2.15414 H        1 UNL1     0.0342
     114 H         -2.63187   0.259803   -1.963586 H        1 UNL1     0.0342
     115 H         1.969762   -4.406251   1.714718 H        1 UNL1     0.0234
     116 H         0.324122   -4.85873   2.170696 H        1 UNL1     0.0234
     117 H         0.917913   -4.965336   0.500458 H        1 UNL1     0.0234
     118 H         -3.909018   -1.976376   7.732035 H        1 UNL1     0.0309
     119 H         -3.751258   -0.574472   6.628479 H        1 UNL1     0.0309
     120 H         -3.290923   -2.189104   6.135315 H        1 UNL1     0.0309
     121 H         -0.117933   -5.719006   2.328541 H        1 UNL1     0.0524
     122 H         -1.044394   -4.447396   1.521366 H        1 UNL1     0.0524
     123 H         0.691816   -4.205991   1.839234 H        1 UNL1     0.0524
@<TRIPOS>BOND
     1     1     2    1
     2     1    42    1
     3     2     3    2
     4     3     4    1
     5     4     5    2
     6     5     7    1
     7     6    75    1
     8     6    76    1
     9     6    77    1
    10     7     9   am
    11     9    10    1
    12    10    11    2
    13    10    43    1
    14    11    14    1
    15    11    15    1
    16    12    13   ar
    17    12    27   ar
    18    12    43    1
    19    13    14    1
    20    13    30   ar
    21    14    17    2
    22    15    16    1
    23    16    17    1
    24    16    18    1
    25    16    22    1
    26    18    19    1
    27    19    20    1
    28    20    21    1
    29    21    22    1
    30    23    24    1
    31    23    88    1
    32    23    89    1
    33    24    25    1
    34    24    26    1
    35    24    90    1
    36    25    91    1
    37    25    92    1
    38    25    93    1
    39    26    94    1
    40    26    95    1
    41    26    96    1
    42    27    28   ar
    43    28    29   ar
    44    29    30   ar
    45    29    31    1
    46    30    33    1
    47    31    32    1
    48    32    33    1
    49    32    35    1
    50    34    97    1
    51    34    98    1
    52    34    99    1
    53    35    61    1
    54    36    37    1
    55    36    60    1
    56    37    38    1
    57    38    39    1
    58    39    40    1
    59    40    41    1
    60    41    42    1
    61    45   100    1
    62    47   101    1
    63    47   102    1
    64    47   103    1
    65    48   104    1
    66    49   105    1
    67    49   106    1
    68    49   107    1
    69    50   108    1
    70    51    59    1
    71    52   109    1
    72    52   110    1
    73    52   111    1
    74    53    54    1
    75    54    55    2
    76    54    56    1
    77    56   112    1
    78    56   113    1
    79    56   114    1
    80    57   115    1
    81    57   116    1
    82    57   117    1
    83    58   118    1
    84    58   119    1
    85    58   120    1
    86    59   121    1
    87    59   122    1
    88    59   123    1
    89    60    61    2
    90     1    47    1
    91     1    62    1
    92     2    63    1
    93     3    64    1
    94     4    65    1
    95     5     6    1
    96     7     8    2
    97     9    78    1
    98    15    79    1
    99    18    80    1
   100    18    81    1
   101    19    82    1
   102    19    83    1
   103    20    23    1
   104    21    84    1
   105    21    85    1
   106    22    86    1
   107    22    87    1
   108    27    45    1
   109    28    34    1
   110    32    58    1
   111    33    46    2
   112    36    51    1
   113    36    66    1
   114    37    52    1
   115    37    67    1
   116    38    53    1
   117    38    68    1
   118    42    48    1
   119    42    72    1
   120    43    44    2
   121    60    73    1
   122    61    74    1
   123    39    69    1
   124    39    57    1
   125    40    70    1
   126    40    50    1
   127    41    71    1
   128    41    49    1
