@<TRIPOS>MOLECULE
*****
 123 128 0 0 0
SMALL
GASTEIGER

@<TRIPOS>ATOM
     1 C         -1.470857   2.536625   2.902408 C.3        1 UNL1     0.0009
     2 C         -3.219609   3.110417   3.125274 C.2        1 UNL1     -0.0787
     3 C         -4.253271   4.101374   2.911751 C.2        1 UNL1     -0.0649
     4 C         -5.895879   3.993506   3.307427 C.2        1 UNL1     -0.0542
     5 C         -7.189339   4.50906   3.046192 C.2        1 UNL1     0.0115
     6 C         -7.967644   5.645251   2.327418 C.3        1 UNL1     -0.0348
     7 C         -8.47171   3.650477   3.488175 C.2        1 UNL1     0.2441
     8 O         -9.132542   3.906635   4.485275 O.2        1 UNL1     -0.2702
     9 N         -8.939803   2.748421   2.51692 N.am        1 UNL1     -0.2772
     10 C         -8.293557   1.539246   2.633464 C.2        1 UNL1     0.1049
     11 C         -7.11181   1.452293   2.050252 C.2        1 UNL1     0.0801
     12 C         -7.642999   -0.209699   4.299388 C.ar        1 UNL1     0.0753
     13 C         -6.318474   -0.113905   3.765472 C.ar        1 UNL1     0.0305
     14 C         -6.04072   0.625089   2.535923 C.2        1 UNL1     0.0924
     15 N         -6.515931   2.283013   1.177692 N.pl3        1 UNL1     -0.3170
     16 C         -5.311965   1.644929   0.715556 C.3        1 UNL1     0.1275
     17 N         -4.906529   0.73613   1.850206 N.2        1 UNL1     -0.2557
     18 C         -5.700757   0.729887   -0.441699 C.3        1 UNL1     0.0016
     19 C         -6.417249   1.55768   -1.496681 C.3        1 UNL1     0.0026
     20 N         -5.525301   2.618394   -1.94428 N.3        1 UNL1     -0.3018
     21 C         -5.047262   3.515013   -0.889804 C.3        1 UNL1     0.0026
     22 C         -4.326823   2.663115   0.156682 C.3        1 UNL1     0.0016
     23 C         -5.990444   3.27518   -3.14965 C.3        1 UNL1     0.0012
     24 C         -5.86664   2.333769   -4.358027 C.3        1 UNL1     -0.0339
     25 C         -5.525901   3.10834   -5.641769 C.3        1 UNL1     -0.0615
     26 C         -4.842465   1.249636   -4.0708 C.3        1 UNL1     -0.0615
     27 C         -7.920194   -1.01407   5.402233 C.ar        1 UNL1     0.1347
     28 C         -6.966709   -1.796797   6.028536 C.ar        1 UNL1     0.0342
     29 C         -5.660237   -1.64884   5.516283 C.ar        1 UNL1     0.1435
     30 C         -5.36092   -0.819175   4.434948 C.ar        1 UNL1     0.0774
     31 O         -4.642171   -2.425281   5.947197 O.3        1 UNL1     -0.4436
     32 C         -3.650286   -2.329204   4.91385 C.3        1 UNL1     0.3143
     33 C         -3.947216   -1.026148   4.199643 C.2        1 UNL1     0.2504
     34 C         -7.236541   -2.867943   7.048309 C.3        1 UNL1     -0.0327
     35 O         -2.379277   -2.172405   5.556657 O.2        1 UNL1     -0.4528
     36 C         0.166652   -3.75557   3.228585 C.3        1 UNL1     0.0854
     37 C         0.479338   -3.421855   1.719153 C.3        1 UNL1     0.0236
     38 C         2.012853   -3.070489   1.408319 C.3        1 UNL1     0.1131
     39 C         2.761821   -1.98411   2.280728 C.3        1 UNL1     0.0200
     40 C         2.004822   -0.552176   2.679417 C.3        1 UNL1     0.0661
     41 C         1.204746   0.483005   1.599654 C.3        1 UNL1     0.0091
     42 C         -0.250217   1.571544   1.851781 C.3        1 UNL1     0.0661
     43 C         -8.729033   0.50611   3.584961 C.2        1 UNL1     0.2131
     44 O         -9.906258   0.209478   3.679245 O.2        1 UNL1     -0.2851
     45 O         -9.226327   -1.015745   5.887467 O.3        1 UNL1     -0.5056
     46 O         -3.184052   -0.308923   3.592171 O.2        1 UNL1     -0.2836
     47 C         -0.52159   3.319808   3.848715 C.3        1 UNL1     -0.0566
     48 O         0.37513   2.749061   1.202544 O.3        1 UNL1     -0.3909
     49 C         0.988146   -0.24749   0.293148 C.3        1 UNL1     -0.0577
     50 O         1.243466   -0.699867   3.861046 O.3        1 UNL1     -0.3910
     51 O         1.220508   -3.536601   4.139009 O.3        1 UNL1     -0.3753
     52 C         -0.702939   -2.661378   1.03443 C.3        1 UNL1     -0.0564
     53 O         2.35221   -3.103507   -0.053212 O.3        1 UNL1     -0.4608
     54 C         1.546425   -3.597225   -1.045624 C.2        1 UNL1     0.3042
     55 O         1.648851   -4.67962   -1.621618 O.2        1 UNL1     -0.2512
     56 C         0.39391   -2.696672   -1.388299 C.3        1 UNL1     0.0332
     57 C         3.55322   -2.755797   3.436739 C.3        1 UNL1     -0.0567
     58 C         -3.915946   -3.502505   3.942089 C.3        1 UNL1     0.0210
     59 C         0.834557   -2.916617   5.364786 C.3        1 UNL1     0.0372
     60 C         -1.032401   -3.073997   3.787951 C.2        1 UNL1     -0.0208
     61 C         -1.207363   -2.451386   4.954351 C.2        1 UNL1     0.0882
     62 H         -1.730635   1.605469   3.420264 H        1 UNL1     0.0365
     63 H         -3.617166   2.311906   3.755193 H        1 UNL1     0.0576
     64 H         -4.078545   4.987586   2.297579 H        1 UNL1     0.0615
     65 H         -5.946216   3.131875   3.978651 H        1 UNL1     0.0622
     66 H         -0.068541   -4.829221   3.230902 H        1 UNL1     0.0645
     67 H         0.366831   -4.390379   1.201598 H        1 UNL1     0.0362
     68 H         2.479364   -4.031101   1.674989 H        1 UNL1     0.0741
     69 H         3.637001   -1.647431   1.741177 H        1 UNL1     0.0359
     70 H         2.882105   0.047597   2.988784 H        1 UNL1     0.0600
     71 H         2.036596   1.163827   1.332325 H        1 UNL1     0.0348
     72 H         0.145621   1.357171   2.855112 H        1 UNL1     0.0602
     73 H         -1.862767   -3.248361   3.14972 H        1 UNL1     0.0628
     74 H         -0.400591   -2.183213   5.637315 H        1 UNL1     0.1022
     75 H         -7.507339   6.637857   2.55077 H        1 UNL1     0.0279
     76 H         -7.962602   5.624063   1.239946 H        1 UNL1     0.0279
     77 H         -8.983552   5.782819   2.725798 H        1 UNL1     0.0279
     78 H         -8.741755   3.113282   1.587549 H        1 UNL1     0.1553
     79 H         -7.008684   2.9704   0.637668 H        1 UNL1     0.1484
     80 H         -4.795618   0.261467   -0.846757 H        1 UNL1     0.0317
     81 H         -6.347389   -0.084064   -0.096729 H        1 UNL1     0.0317
     82 H         -7.363602   1.970209   -1.117013 H        1 UNL1     0.0428
     83 H         -6.687123   0.885452   -2.311744 H        1 UNL1     0.0428
     84 H         -4.317497   4.252364   -1.23847 H        1 UNL1     0.0428
     85 H         -5.860797   4.122675   -0.470012 H        1 UNL1     0.0428
     86 H         -3.878181   3.360948   0.839131 H        1 UNL1     0.0317
     87 H         -3.463516   2.161959   -0.297896 H        1 UNL1     0.0317
     88 H         -7.049368   3.530491   -3.01257 H        1 UNL1     0.0429
     89 H         -5.452724   4.216056   -3.323961 H        1 UNL1     0.0429
     90 H         -6.820081   1.81321   -4.506967 H        1 UNL1     0.0308
     91 H         -4.721197   3.829365   -5.469497 H        1 UNL1     0.0233
     92 H         -5.228792   2.423032   -6.439069 H        1 UNL1     0.0233
     93 H         -6.382487   3.673903   -6.028078 H        1 UNL1     0.0233
     94 H         -4.594518   0.710765   -4.991656 H        1 UNL1     0.0233
     95 H         -3.922712   1.697497   -3.684229 H        1 UNL1     0.0233
     96 H         -5.218695   0.528969   -3.339323 H        1 UNL1     0.0233
     97 H         -6.754132   -2.657113   7.998079 H        1 UNL1     0.0280
     98 H         -8.307034   -2.967527   7.270532 H        1 UNL1     0.0280
     99 H         -6.859758   -3.834826   6.676465 H        1 UNL1     0.0280
     100 H         -9.590631   -1.871965   6.028154 H        1 UNL1     0.2922
     101 H         -0.232532   2.685782   4.686637 H        1 UNL1     0.0236
     102 H         -0.935853   4.271511   4.179819 H        1 UNL1     0.0236
     103 H         0.429256   3.583369   3.356148 H        1 UNL1     0.0236
     104 H         -0.135318   2.945033   0.392601 H        1 UNL1     0.2098
     105 H         1.658418   0.055541   -0.507302 H        1 UNL1     0.0234
     106 H         0.966793   -1.333969   0.377015 H        1 UNL1     0.0234
     107 H         0.0   0.0   0.0 H        1 UNL1     0.0234
     108 H         0.651341   0.074266   3.923284 H        1 UNL1     0.2098
     109 H         -1.43572   -3.347688   0.587527 H        1 UNL1     0.0234
     110 H         -1.215357   -1.966334   1.708287 H        1 UNL1     0.0234
     111 H         -0.351951   -2.024398   0.211624 H        1 UNL1     0.0234
     112 H         -0.218911   -3.157256   -2.169106 H        1 UNL1     0.0342
     113 H         -0.207192   -2.450236   -0.514349 H        1 UNL1     0.0342
     114 H         0.799667   -1.757466   -1.788819 H        1 UNL1     0.0342
     115 H         4.457061   -2.212748   3.745538 H        1 UNL1     0.0234
     116 H         2.959128   -2.94143   4.333759 H        1 UNL1     0.0234
     117 H         3.984041   -3.717376   3.108561 H        1 UNL1     0.0234
     118 H         -3.007048   -3.796042   3.388241 H        1 UNL1     0.0309
     119 H         -4.333919   -4.384531   4.437601 H        1 UNL1     0.0309
     120 H         -4.621846   -3.238287   3.147104 H        1 UNL1     0.0309
     121 H         1.706155   -2.39491   5.759116 H        1 UNL1     0.0524
     122 H         0.036495   -2.16905   5.222386 H        1 UNL1     0.0524
     123 H         0.493551   -3.665697   6.07379 H        1 UNL1     0.0524
@<TRIPOS>BOND
     1     1     2    1
     2     1    42    1
     3     2     3    2
     4     3     4    1
     5     4     5    2
     6     5     7    1
     7     6    75    1
     8     6    76    1
     9     6    77    1
    10     7     9   am
    11     9    10    1
    12    10    11    2
    13    10    43    1
    14    11    14    1
    15    11    15    1
    16    12    13   ar
    17    12    27   ar
    18    12    43    1
    19    13    14    1
    20    13    30   ar
    21    14    17    2
    22    15    16    1
    23    16    17    1
    24    16    18    1
    25    16    22    1
    26    18    19    1
    27    19    20    1
    28    20    21    1
    29    21    22    1
    30    23    24    1
    31    23    88    1
    32    23    89    1
    33    24    25    1
    34    24    26    1
    35    24    90    1
    36    25    91    1
    37    25    92    1
    38    25    93    1
    39    26    94    1
    40    26    95    1
    41    26    96    1
    42    27    28   ar
    43    28    29   ar
    44    29    30   ar
    45    29    31    1
    46    30    33    1
    47    31    32    1
    48    32    33    1
    49    32    35    1
    50    34    97    1
    51    34    98    1
    52    34    99    1
    53    35    61    1
    54    36    37    1
    55    36    60    1
    56    37    38    1
    57    38    39    1
    58    39    40    1
    59    40    41    1
    60    41    42    1
    61    45   100    1
    62    47   101    1
    63    47   102    1
    64    47   103    1
    65    48   104    1
    66    49   105    1
    67    49   106    1
    68    49   107    1
    69    50   108    1
    70    51    59    1
    71    52   109    1
    72    52   110    1
    73    52   111    1
    74    53    54    1
    75    54    55    2
    76    54    56    1
    77    56   112    1
    78    56   113    1
    79    56   114    1
    80    57   115    1
    81    57   116    1
    82    57   117    1
    83    58   118    1
    84    58   119    1
    85    58   120    1
    86    59   121    1
    87    59   122    1
    88    59   123    1
    89    60    61    2
    90     1    47    1
    91     1    62    1
    92     2    63    1
    93     3    64    1
    94     4    65    1
    95     5     6    1
    96     7     8    2
    97     9    78    1
    98    15    79    1
    99    18    80    1
   100    18    81    1
   101    19    82    1
   102    19    83    1
   103    20    23    1
   104    21    84    1
   105    21    85    1
   106    22    86    1
   107    22    87    1
   108    27    45    1
   109    28    34    1
   110    32    58    1
   111    33    46    2
   112    36    51    1
   113    36    66    1
   114    37    52    1
   115    37    67    1
   116    38    53    1
   117    38    68    1
   118    42    48    1
   119    42    72    1
   120    43    44    2
   121    60    73    1
   122    61    74    1
   123    39    69    1
   124    39    57    1
   125    40    70    1
   126    40    50    1
   127    41    71    1
   128    41    49    1
