@<TRIPOS>MOLECULE
*****
 123 128 0 0 0
SMALL
GASTEIGER

@<TRIPOS>ATOM
     1 C         3.878201   -0.697127   1.229706 C.3        1 UNL1     0.0009
     2 C         4.500335   -2.060298   2.321381 C.2        1 UNL1     -0.0787
     3 C         4.865398   -2.551065   3.633601 C.2        1 UNL1     -0.0649
     4 C         5.314626   -4.12448   4.068244 C.2        1 UNL1     -0.0542
     5 C         5.441323   -5.041317   5.140827 C.2        1 UNL1     0.0115
     6 C         5.404788   -5.178286   6.687833 C.3        1 UNL1     -0.0348
     7 C         5.550896   -6.609136   4.813832 C.2        1 UNL1     0.2441
     8 O         6.609055   -7.222357   4.841856 O.2        1 UNL1     -0.2702
     9 N         4.319831   -7.284749   4.749198 N.am        1 UNL1     -0.2772
     10 C         3.803699   -7.221565   3.475252 C.2        1 UNL1     0.1049
     11 C         3.141111   -6.120748   3.169638 C.2        1 UNL1     0.0801
     12 C         4.403338   -7.573803   1.0724 C.ar        1 UNL1     0.0753
     13 C         3.855745   -6.274451   0.826561 C.ar        1 UNL1     0.0305
     14 C         3.088371   -5.562159   1.84579 C.2        1 UNL1     0.0924
     15 N         2.701834   -5.128587   3.962846 N.pl3        1 UNL1     -0.3170
     16 C         1.888834   -4.252673   3.161559 C.3        1 UNL1     0.1275
     17 N         2.431416   -4.408771   1.76193 N.2        1 UNL1     -0.2557
     18 C         0.48051   -4.838977   3.13763 C.3        1 UNL1     0.0016
     19 C         -0.000867   -5.006677   4.570021 C.3        1 UNL1     0.0026
     20 N         0.013904   -3.705397   5.22384 N.3        1 UNL1     -0.3018
     21 C         1.314917   -3.033534   5.242132 C.3        1 UNL1     0.0026
     22 C         1.777283   -2.871262   3.79307 C.3        1 UNL1     0.0016
     23 C         -0.702227   -3.699229   6.483904 C.3        1 UNL1     0.0012
     24 C         0.22366   -4.131568   7.63176 C.3        1 UNL1     -0.0339
     25 C         0.348501   -3.03124   8.698413 C.3        1 UNL1     -0.0615
     26 C         -0.265543   -5.438444   8.231371 C.3        1 UNL1     -0.0615
     27 C         5.028686   -8.296952   0.059427 C.ar        1 UNL1     0.1347
     28 C         5.131287   -7.843341   -1.243554 C.ar        1 UNL1     0.0342
     29 C         4.628593   -6.541216   -1.450759 C.ar        1 UNL1     0.1435
     30 C         4.031895   -5.790305   -0.437199 C.ar        1 UNL1     0.0774
     31 O         4.555927   -6.002338   -2.687423 O.3        1 UNL1     -0.4436
     32 C         3.598572   -4.939708   -2.564291 C.3        1 UNL1     0.3143
     33 C         3.59926   -4.574317   -1.093678 C.2        1 UNL1     0.2504
     34 C         5.559224   -8.660641   -2.430563 C.3        1 UNL1     -0.0327
     35 O         4.121593   -3.810685   -3.27493 O.2        1 UNL1     -0.4528
     36 C         1.103169   -1.886529   -4.537795 C.3        1 UNL1     0.0854
     37 C         -0.101775   -1.276618   -3.723153 C.3        1 UNL1     0.0236
     38 C         -0.353499   0.289438   -3.959481 C.3        1 UNL1     0.1131
     39 C         0.850042   1.307147   -3.825216 C.3        1 UNL1     0.0200
     40 C         1.933691   1.172488   -2.56426 C.3        1 UNL1     0.0661
     41 C         1.534117   1.019088   -0.922792 C.3        1 UNL1     0.0091
     42 C         2.393451   0.131302   0.433225 C.3        1 UNL1     0.0661
     43 C         4.204192   -8.163588   2.419528 C.2        1 UNL1     0.2131
     44 O         4.257727   -9.358904   2.645561 O.2        1 UNL1     -0.2851
     45 O         5.575244   -9.534409   0.393214 O.3        1 UNL1     -0.5056
     46 O         3.325855   -3.512103   -0.581033 O.2        1 UNL1     -0.2836
     47 C         4.988213   0.365263   1.007931 C.3        1 UNL1     -0.0566
     48 O         2.308911   1.266539   1.383597 O.3        1 UNL1     -0.3909
     49 C         0.063877   0.68345   -0.807735 C.3        1 UNL1     -0.0577
     50 O         2.976792   0.27729   -2.893326 O.3        1 UNL1     -0.3910
     51 O         1.910789   -0.960657   -5.229128 O.3        1 UNL1     -0.3753
     52 C         -0.245248   -1.938156   -2.313639 C.3        1 UNL1     -0.0564
     53 O         -1.688418   0.764492   -3.46487 O.3        1 UNL1     -0.4608
     54 C         -1.895812   1.530223   -2.347474 C.2        1 UNL1     0.3042
     55 O         -2.306069   1.15436   -1.250088 O.2        1 UNL1     -0.2512
     56 C         -1.50945   2.970965   -2.525527 C.3        1 UNL1     0.0332
     57 C         1.439612   1.553002   -5.291551 C.3        1 UNL1     -0.0567
     58 C         2.222972   -5.546068   -2.927032 C.3        1 UNL1     0.0210
     59 C         3.025782   -1.531035   -5.912741 C.3        1 UNL1     0.0372
     60 C         2.021576   -2.752086   -3.748807 C.2        1 UNL1     -0.0208
     61 C         3.354178   -2.796366   -3.717894 C.2        1 UNL1     0.0882
     62 H         3.9275   -1.384077   0.376254 H        1 UNL1     0.0365
     63 H         4.722447   -2.830055   1.579349 H        1 UNL1     0.0576
     64 H         4.718158   -1.947341   4.531903 H        1 UNL1     0.0615
     65 H         5.512163   -4.613127   3.110284 H        1 UNL1     0.0622
     66 H         0.629722   -2.546086   -5.278658 H        1 UNL1     0.0645
     67 H         -0.996137   -1.716702   -4.197497 H        1 UNL1     0.0362
     68 H         -0.605759   0.275585   -5.030786 H        1 UNL1     0.0741
     69 H         0.450109   2.303069   -3.688831 H        1 UNL1     0.0359
     70 H         2.403817   2.173501   -2.609134 H        1 UNL1     0.0600
     71 H         1.537467   2.085307   -0.622586 H        1 UNL1     0.0348
     72 H         3.142594   0.272487   -0.359344 H        1 UNL1     0.0602
     73 H         1.454137   -3.492296   -3.241508 H        1 UNL1     0.0628
     74 H         4.006641   -2.043906   -4.162116 H        1 UNL1     0.1022
     75 H         5.396097   -4.171288   7.170444 H        1 UNL1     0.0279
     76 H         4.521027   -5.649187   7.112436 H        1 UNL1     0.0279
     77 H         6.330276   -5.607637   7.098724 H        1 UNL1     0.0279
     78 H         3.651214   -6.837809   5.373116 H        1 UNL1     0.1553
     79 H         2.589007   -5.217964   4.95593 H        1 UNL1     0.1484
     80 H         -0.176282   -4.168534   2.570271 H        1 UNL1     0.0317
     81 H         0.467036   -5.803673   2.619141 H        1 UNL1     0.0317
     82 H         0.611437   -5.734338   5.122747 H        1 UNL1     0.0428
     83 H         -1.005971   -5.427625   4.52977 H        1 UNL1     0.0428
     84 H         1.282065   -2.025459   5.667003 H        1 UNL1     0.0428
     85 H         2.040774   -3.565315   5.872733 H        1 UNL1     0.0428
     86 H         2.660961   -2.262067   3.837601 H        1 UNL1     0.0317
     87 H         1.065506   -2.245915   3.24043 H        1 UNL1     0.0317
     88 H         -1.043749   -2.673984   6.677628 H        1 UNL1     0.0429
     89 H         -1.597236   -4.332896   6.43701 H        1 UNL1     0.0429
     90 H         1.221388   -4.341912   7.228636 H        1 UNL1     0.0308
     91 H         0.025239   -2.061235   8.308933 H        1 UNL1     0.0233
     92 H         -0.245818   -3.279491   9.58089 H        1 UNL1     0.0233
     93 H         1.379765   -2.905302   9.049794 H        1 UNL1     0.0233
     94 H         -1.118898   -5.254396   8.892996 H        1 UNL1     0.0233
     95 H         -0.594547   -6.114053   7.436846 H        1 UNL1     0.0233
     96 H         0.520737   -5.930876   8.810373 H        1 UNL1     0.0233
     97 H         6.617428   -8.90234   -2.398689 H        1 UNL1     0.0280
     98 H         5.032667   -9.62258   -2.482187 H        1 UNL1     0.0280
     99 H         5.361172   -8.097392   -3.357181 H        1 UNL1     0.0280
     100 H         6.121159   -9.52738   1.159732 H        1 UNL1     0.2922
     101 H         4.590786   1.196148   0.425403 H        1 UNL1     0.0236
     102 H         5.894473   -0.047513   0.566013 H        1 UNL1     0.0236
     103 H         5.320201   0.821355   1.955537 H        1 UNL1     0.0236
     104 H         3.204364   1.415618   1.745413 H        1 UNL1     0.2098
     105 H         -0.573896   1.532811   -0.576126 H        1 UNL1     0.0234
     106 H         -0.342844   0.124275   -1.650247 H        1 UNL1     0.0234
     107 H         0.0   -0.0   0.0 H        1 UNL1     0.0234
     108 H         3.217043   -0.201058   -2.076483 H        1 UNL1     0.2098
     109 H         -0.805822   -2.882591   -2.352499 H        1 UNL1     0.0234
     110 H         0.716316   -2.103021   -1.815685 H        1 UNL1     0.0234
     111 H         -0.798051   -1.292792   -1.618038 H        1 UNL1     0.0234
     112 H         -0.438592   3.095028   -2.337867 H        1 UNL1     0.0342
     113 H         -1.779867   3.348788   -3.510396 H        1 UNL1     0.0342
     114 H         -2.05332   3.56674   -1.77959 H        1 UNL1     0.0342
     115 H         0.642388   1.648473   -6.041555 H        1 UNL1     0.0234
     116 H         2.074099   2.437847   -5.37232 H        1 UNL1     0.0234
     117 H         2.003957   0.691845   -5.688874 H        1 UNL1     0.0234
     118 H         1.410675   -5.133929   -2.303076 H        1 UNL1     0.0309
     119 H         1.962793   -5.419963   -3.982782 H        1 UNL1     0.0309
     120 H         2.172517   -6.622286   -2.728752 H        1 UNL1     0.0309
     121 H         3.855497   -1.57849   -5.207988 H        1 UNL1     0.0524
     122 H         2.823948   -2.558834   -6.257601 H        1 UNL1     0.0524
     123 H         3.2954   -0.918565   -6.768474 H        1 UNL1     0.0524
@<TRIPOS>BOND
     1     1     2    1
     2     1    42    1
     3     2     3    2
     4     3     4    1
     5     4     5    2
     6     5     7    1
     7     6    75    1
     8     6    76    1
     9     6    77    1
    10     7     9   am
    11     9    10    1
    12    10    11    2
    13    10    43    1
    14    11    14    1
    15    11    15    1
    16    12    13   ar
    17    12    27   ar
    18    12    43    1
    19    13    14    1
    20    13    30   ar
    21    14    17    2
    22    15    16    1
    23    16    17    1
    24    16    18    1
    25    16    22    1
    26    18    19    1
    27    19    20    1
    28    20    21    1
    29    21    22    1
    30    23    24    1
    31    23    88    1
    32    23    89    1
    33    24    25    1
    34    24    26    1
    35    24    90    1
    36    25    91    1
    37    25    92    1
    38    25    93    1
    39    26    94    1
    40    26    95    1
    41    26    96    1
    42    27    28   ar
    43    28    29   ar
    44    29    30   ar
    45    29    31    1
    46    30    33    1
    47    31    32    1
    48    32    33    1
    49    32    35    1
    50    34    97    1
    51    34    98    1
    52    34    99    1
    53    35    61    1
    54    36    37    1
    55    36    60    1
    56    37    38    1
    57    38    39    1
    58    39    40    1
    59    40    41    1
    60    41    42    1
    61    45   100    1
    62    47   101    1
    63    47   102    1
    64    47   103    1
    65    48   104    1
    66    49   105    1
    67    49   106    1
    68    49   107    1
    69    50   108    1
    70    51    59    1
    71    52   109    1
    72    52   110    1
    73    52   111    1
    74    53    54    1
    75    54    55    2
    76    54    56    1
    77    56   112    1
    78    56   113    1
    79    56   114    1
    80    57   115    1
    81    57   116    1
    82    57   117    1
    83    58   118    1
    84    58   119    1
    85    58   120    1
    86    59   121    1
    87    59   122    1
    88    59   123    1
    89    60    61    2
    90     1    47    1
    91     1    62    1
    92     2    63    1
    93     3    64    1
    94     4    65    1
    95     5     6    1
    96     7     8    2
    97     9    78    1
    98    15    79    1
    99    18    80    1
   100    18    81    1
   101    19    82    1
   102    19    83    1
   103    20    23    1
   104    21    84    1
   105    21    85    1
   106    22    86    1
   107    22    87    1
   108    27    45    1
   109    28    34    1
   110    32    58    1
   111    33    46    2
   112    36    51    1
   113    36    66    1
   114    37    52    1
   115    37    67    1
   116    38    53    1
   117    38    68    1
   118    42    48    1
   119    42    72    1
   120    43    44    2
   121    60    73    1
   122    61    74    1
   123    39    69    1
   124    39    57    1
   125    40    70    1
   126    40    50    1
   127    41    71    1
   128    41    49    1
