@<TRIPOS>MOLECULE
*****
 123 128 0 0 0
SMALL
GASTEIGER

@<TRIPOS>ATOM
     1 C         3.55444   -1.278182   -1.666589 C.3        1 UNL1     0.0009
     2 C         4.787015   -0.282071   -2.628647 C.2        1 UNL1     -0.0787
     3 C         5.308846   0.186786   -3.895104 C.2        1 UNL1     -0.0649
     4 C         6.543807   1.314602   -4.158278 C.2        1 UNL1     -0.0542
     5 C         7.117265   2.21142   -5.093126 C.2        1 UNL1     0.0115
     6 C         7.098784   2.657145   -6.581182 C.3        1 UNL1     -0.0348
     7 C         8.100128   3.364071   -4.561745 C.2        1 UNL1     0.2441
     8 O         9.317869   3.296252   -4.656781 O.2        1 UNL1     -0.2702
     9 N         7.463056   4.56914   -4.21809 N.am        1 UNL1     -0.2772
     10 C         7.054236   4.53861   -2.9046 C.2        1 UNL1     0.1049
     11 C         5.902168   3.938026   -2.66741 C.2        1 UNL1     0.0801
     12 C         7.848597   4.012742   -0.591639 C.ar        1 UNL1     0.0753
     13 C         6.677899   3.200076   -0.458788 C.ar        1 UNL1     0.0305
     14 C         5.60118   3.242214   -1.445678 C.2        1 UNL1     0.0924
     15 N         4.949534   3.528199   -3.522429 N.pl3        1 UNL1     -0.3170
     16 C         3.819891   3.091856   -2.745406 C.3        1 UNL1     0.1275
     17 N         4.414996   2.640752   -1.433888 N.2        1 UNL1     -0.2557
     18 C         2.984437   4.328448   -2.428294 C.3        1 UNL1     0.0016
     19 C         2.620014   5.01707   -3.733892 C.3        1 UNL1     0.0026
     20 N         1.875624   4.080753   -4.564688 N.3        1 UNL1     -0.3018
     21 C         2.574606   2.831414   -4.872822 C.3        1 UNL1     0.0026
     22 C         2.927044   2.154136   -3.547312 C.3        1 UNL1     0.0016
     23 C         1.22683   4.719837   -5.692199 C.3        1 UNL1     0.0012
     24 C         0.698595   6.107067   -5.29431 C.3        1 UNL1     -0.0339
     25 C         0.235474   6.906267   -6.523479 C.3        1 UNL1     -0.0615
     26 C         -0.412046   5.96668   -4.267885 C.3        1 UNL1     -0.0615
     27 C         8.813651   4.057711   0.411738 C.ar        1 UNL1     0.1347
     28 C         8.699107   3.36754   1.605302 C.ar        1 UNL1     0.0342
     29 C         7.562372   2.536124   1.693308 C.ar        1 UNL1     0.1435
     30 C         6.605437   2.453106   0.681081 C.ar        1 UNL1     0.0774
     31 O         7.252283   1.884894   2.835564 O.3        1 UNL1     -0.4436
     32 C         5.859762   1.56231   2.702529 C.3        1 UNL1     0.3143
     33 C         5.593799   1.562697   1.210726 C.2        1 UNL1     0.2504
     34 C         9.560929   3.560935   2.821838 C.3        1 UNL1     -0.0327
     35 O         5.689655   0.213818   3.156275 O.2        1 UNL1     -0.4528
     36 C         2.167708   0.02435   4.559158 C.3        1 UNL1     0.0854
     37 C         0.79499   0.345594   3.852073 C.3        1 UNL1     0.0236
     38 C         -0.280803   -0.842991   3.893068 C.3        1 UNL1     0.1131
     39 C         0.138891   -2.297958   3.435684 C.3        1 UNL1     0.0200
     40 C         1.057761   -2.519395   2.061246 C.3        1 UNL1     0.0661
     41 C         0.744208   -1.844305   0.536926 C.3        1 UNL1     0.0091
     42 C         1.895523   -1.310718   -0.787899 C.3        1 UNL1     0.0661
     43 C         7.957724   4.875252   -1.794314 C.2        1 UNL1     0.2131
     44 O         8.662272   5.866856   -1.849741 O.2        1 UNL1     -0.2851
     45 O         9.945116   4.83833   0.184017 O.3        1 UNL1     -0.5056
     46 O         4.750913   0.948849   0.59543 O.2        1 UNL1     -0.2836
     47 C         3.88669   -2.791207   -1.768317 C.3        1 UNL1     -0.0566
     48 O         1.149559   -1.997571   -1.869974 O.3        1 UNL1     -0.3909
     49 C         -0.288756   -0.750326   0.690834 C.3        1 UNL1     -0.0577
     50 O         2.43605   -2.421649   2.358719 O.3        1 UNL1     -0.3910
     51 O         2.346042   -1.308824   4.981383 O.3        1 UNL1     -0.3753
     52 C         0.987754   1.24911   2.590546 C.3        1 UNL1     -0.0564
     53 O         -1.672026   -0.406334   3.537886 O.3        1 UNL1     -0.4608
     54 C         -2.827665   -0.987519   3.990273 C.2        1 UNL1     0.3042
     55 O         -3.036368   -2.184942   4.181212 O.2        1 UNL1     -0.2512
     56 C         -3.906824   0.001973   4.32648 C.3        1 UNL1     0.0332
     57 C         0.550446   -3.115849   4.747115 C.3        1 UNL1     -0.0567
     58 C         5.076852   2.728698   3.349151 C.3        1 UNL1     0.0210
     59 C         3.236244   -1.474327   6.084114 C.3        1 UNL1     0.0372
     60 C         3.379258   0.392616   3.777054 C.2        1 UNL1     -0.0208
     61 C         4.50511   -0.28731   3.555915 C.2        1 UNL1     0.0882
     62 H         4.015995   -0.918092   -0.73922 H        1 UNL1     0.0365
     63 H         5.43324   0.074505   -1.823838 H        1 UNL1     0.0576
     64 H         4.811022   -0.04324   -4.839755 H        1 UNL1     0.0615
     65 H         7.021264   1.41141   -3.179428 H        1 UNL1     0.0622
     66 H         2.176763   0.668317   5.449816 H        1 UNL1     0.0645
     67 H         0.321686   1.092879   4.512457 H        1 UNL1     0.0362
     68 H         -0.436696   -0.912569   4.98044 H        1 UNL1     0.0741
     69 H         -0.755705   -2.865593   3.21683 H        1 UNL1     0.0359
     70 H         0.88765   -3.5996   1.890131 H        1 UNL1     0.0600
     71 H         0.13694   -2.654581   0.087887 H        1 UNL1     0.0348
     72 H         2.469416   -1.992894   -0.144006 H        1 UNL1     0.0602
     73 H         3.303307   1.406826   3.472329 H        1 UNL1     0.0628
     74 H         4.64188   -1.344784   3.784567 H        1 UNL1     0.1022
     75 H         6.491575   1.948956   -7.195022 H        1 UNL1     0.0279
     76 H         6.629091   3.614605   -6.795022 H        1 UNL1     0.0279
     77 H         8.083863   2.571929   -7.062907 H        1 UNL1     0.0279
     78 H         6.633323   4.693831   -4.794348 H        1 UNL1     0.1553
     79 H         4.864553   3.863955   -4.464225 H        1 UNL1     0.1484
     80 H         2.08931   4.0225   -1.873398 H        1 UNL1     0.0317
     81 H         3.535618   5.017086   -1.778965 H        1 UNL1     0.0317
     82 H         3.511016   5.390816   -4.259575 H        1 UNL1     0.0428
     83 H         2.026141   5.89695   -3.484541 H        1 UNL1     0.0428
     84 H         1.96473   2.113497   -5.430009 H        1 UNL1     0.0428
     85 H         3.446511   2.999701   -5.519952 H        1 UNL1     0.0428
     86 H         3.314813   1.187438   -3.810213 H        1 UNL1     0.0317
     87 H         2.011082   1.917756   -2.992122 H        1 UNL1     0.0317
     88 H         1.971686   4.844829   -6.488981 H        1 UNL1     0.0429
     89 H         0.423541   4.091821   -6.09852 H        1 UNL1     0.0429
     90 H         1.498703   6.666504   -4.795242 H        1 UNL1     0.0308
     91 H         -0.608042   7.558778   -6.278915 H        1 UNL1     0.0233
     92 H         1.053426   7.511436   -6.921393 H        1 UNL1     0.0233
     93 H         -0.092102   6.257115   -7.344533 H        1 UNL1     0.0233
     94 H         -0.895057   4.988406   -4.365442 H        1 UNL1     0.0233
     95 H         0.001152   6.039421   -3.257965 H        1 UNL1     0.0233
     96 H         -1.172902   6.741917   -4.394665 H        1 UNL1     0.0233
     97 H         9.202614   2.98607   3.670585 H        1 UNL1     0.0280
     98 H         10.59519   3.233991   2.652521 H        1 UNL1     0.0280
     99 H         9.567188   4.626488   3.104067 H        1 UNL1     0.0280
     100 H         10.204801   4.897468   -0.718585 H        1 UNL1     0.2922
     101 H         3.317775   -3.343633   -1.020776 H        1 UNL1     0.0236
     102 H         4.954082   -3.000739   -1.707058 H        1 UNL1     0.0236
     103 H         3.570995   -3.220528   -2.733829 H        1 UNL1     0.0236
     104 H         1.153663   -1.409404   -2.650367 H        1 UNL1     0.2098
     105 H         -1.303912   -1.053731   0.447496 H        1 UNL1     0.0234
     106 H         -0.268131   -0.236492   1.651811 H        1 UNL1     0.0234
     107 H         0.0   0.0   0.0 H        1 UNL1     0.0234
     108 H         2.718903   -3.287465   2.711033 H        1 UNL1     0.2098
     109 H         1.915676   1.01607   2.049838 H        1 UNL1     0.0234
     110 H         0.140026   1.208061   1.898147 H        1 UNL1     0.0234
     111 H         1.059769   2.311122   2.860526 H        1 UNL1     0.0234
     112 H         -4.802295   -0.525818   4.668405 H        1 UNL1     0.0342
     113 H         -3.577736   0.731844   5.064608 H        1 UNL1     0.0342
     114 H         -4.167813   0.549494   3.410363 H        1 UNL1     0.0342
     115 H         1.630089   -3.316873   4.781018 H        1 UNL1     0.0234
     116 H         0.278959   -2.621569   5.682011 H        1 UNL1     0.0234
     117 H         0.141953   -4.140751   4.772636 H        1 UNL1     0.0234
     118 H         4.655256   2.451048   4.331075 H        1 UNL1     0.0309
     119 H         5.67549   3.638312   3.460679 H        1 UNL1     0.0309
     120 H         4.194163   3.016035   2.767428 H        1 UNL1     0.0309
     121 H         2.734914   -2.100782   6.821393 H        1 UNL1     0.0524
     122 H         4.170121   -1.984535   5.794979 H        1 UNL1     0.0524
     123 H         3.481536   -0.508794   6.517323 H        1 UNL1     0.0524
@<TRIPOS>BOND
     1     1     2    1
     2     1    42    1
     3     2     3    2
     4     3     4    1
     5     4     5    2
     6     5     7    1
     7     6    75    1
     8     6    76    1
     9     6    77    1
    10     7     9   am
    11     9    10    1
    12    10    11    2
    13    10    43    1
    14    11    14    1
    15    11    15    1
    16    12    13   ar
    17    12    27   ar
    18    12    43    1
    19    13    14    1
    20    13    30   ar
    21    14    17    2
    22    15    16    1
    23    16    17    1
    24    16    18    1
    25    16    22    1
    26    18    19    1
    27    19    20    1
    28    20    21    1
    29    21    22    1
    30    23    24    1
    31    23    88    1
    32    23    89    1
    33    24    25    1
    34    24    26    1
    35    24    90    1
    36    25    91    1
    37    25    92    1
    38    25    93    1
    39    26    94    1
    40    26    95    1
    41    26    96    1
    42    27    28   ar
    43    28    29   ar
    44    29    30   ar
    45    29    31    1
    46    30    33    1
    47    31    32    1
    48    32    33    1
    49    32    35    1
    50    34    97    1
    51    34    98    1
    52    34    99    1
    53    35    61    1
    54    36    37    1
    55    36    60    1
    56    37    38    1
    57    38    39    1
    58    39    40    1
    59    40    41    1
    60    41    42    1
    61    45   100    1
    62    47   101    1
    63    47   102    1
    64    47   103    1
    65    48   104    1
    66    49   105    1
    67    49   106    1
    68    49   107    1
    69    50   108    1
    70    51    59    1
    71    52   109    1
    72    52   110    1
    73    52   111    1
    74    53    54    1
    75    54    55    2
    76    54    56    1
    77    56   112    1
    78    56   113    1
    79    56   114    1
    80    57   115    1
    81    57   116    1
    82    57   117    1
    83    58   118    1
    84    58   119    1
    85    58   120    1
    86    59   121    1
    87    59   122    1
    88    59   123    1
    89    60    61    2
    90     1    47    1
    91     1    62    1
    92     2    63    1
    93     3    64    1
    94     4    65    1
    95     5     6    1
    96     7     8    2
    97     9    78    1
    98    15    79    1
    99    18    80    1
   100    18    81    1
   101    19    82    1
   102    19    83    1
   103    20    23    1
   104    21    84    1
   105    21    85    1
   106    22    86    1
   107    22    87    1
   108    27    45    1
   109    28    34    1
   110    32    58    1
   111    33    46    2
   112    36    51    1
   113    36    66    1
   114    37    52    1
   115    37    67    1
   116    38    53    1
   117    38    68    1
   118    42    48    1
   119    42    72    1
   120    43    44    2
   121    60    73    1
   122    61    74    1
   123    39    69    1
   124    39    57    1
   125    40    70    1
   126    40    50    1
   127    41    71    1
   128    41    49    1
