@<TRIPOS>MOLECULE
*****
 123 128 0 0 0
SMALL
GASTEIGER

@<TRIPOS>ATOM
     1 C         2.096442   -0.572673   3.639778 C.3        1 UNL1     0.0009
     2 C         2.078067   -2.070329   4.732356 C.2        1 UNL1     -0.0787
     3 C         1.646049   -2.736829   5.942804 C.2        1 UNL1     -0.0649
     4 C         1.892364   -4.352188   6.385863 C.2        1 UNL1     -0.0542
     5 C         1.446708   -5.408857   7.217679 C.2        1 UNL1     0.0115
     6 C         0.522299   -5.760758   8.415576 C.3        1 UNL1     -0.0348
     7 C         1.865654   -6.914813   6.852209 C.2        1 UNL1     0.2441
     8 O         2.75558   -7.518174   7.435746 O.2        1 UNL1     -0.2702
     9 N         0.972225   -7.583779   5.997563 N.am        1 UNL1     -0.2772
     10 C         1.298066   -7.347113   4.681835 C.2        1 UNL1     0.1049
     11 C         0.846194   -6.219288   4.164105 C.2        1 UNL1     0.0801
     12 C         3.221087   -7.355985   3.08207 C.ar        1 UNL1     0.0753
     13 C         2.809156   -6.039081   2.701694 C.ar        1 UNL1     0.0305
     14 C         1.530492   -5.481722   3.136919 C.2        1 UNL1     0.0924
     15 N         -0.06057   -5.350847   4.64381 N.pl3        1 UNL1     -0.3170
     16 C         -0.32296   -4.377608   3.617062 C.3        1 UNL1     0.1275
     17 N         0.948463   -4.332766   2.805153 N.2        1 UNL1     -0.2557
     18 C         -1.390898   -4.965124   2.699438 C.3        1 UNL1     0.0016
     19 C         -2.603549   -5.334709   3.538769 C.3        1 UNL1     0.0026
     20 N         -3.090393   -4.137397   4.209929 N.3        1 UNL1     -0.3018
     21 C         -2.113137   -3.465161   5.068672 C.3        1 UNL1     0.0026
     22 C         -0.905537   -3.098762   4.204179 C.3        1 UNL1     0.0016
     23 C         -4.406424   -4.312479   4.791351 C.3        1 UNL1     0.0012
     24 C         -5.482139   -4.329775   3.693947 C.3        1 UNL1     -0.0339
     25 C         -6.8657   -3.965201   4.256888 C.3        1 UNL1     -0.0615
     26 C         -5.080565   -3.406921   2.556468 C.3        1 UNL1     -0.0615
     27 C         4.382688   -7.926008   2.566441 C.ar        1 UNL1     0.1347
     28 C         5.189132   -7.294164   1.636671 C.ar        1 UNL1     0.0342
     29 C         4.790452   -5.97958   1.314046 C.ar        1 UNL1     0.1435
     30 C         3.649113   -5.38194   1.850135 C.ar        1 UNL1     0.0774
     31 O         5.40933   -5.273851   0.342479 O.3        1 UNL1     -0.4436
     32 C         4.472097   -4.245863   -0.012077 C.3        1 UNL1     0.3143
     33 C         3.577923   -4.0894   1.20126 C.2        1 UNL1     0.2504
     34 C         6.302182   -7.934557   0.854932 C.3        1 UNL1     -0.0327
     35 O         5.209842   -3.024874   -0.146868 O.2        1 UNL1     -0.4528
     36 C         3.349446   -0.965389   -2.736374 C.3        1 UNL1     0.0854
     37 C         1.847505   -0.484042   -2.734939 C.3        1 UNL1     0.0236
     38 C         1.64458   1.097784   -2.903437 C.3        1 UNL1     0.1131
     39 C         2.444693   2.095562   -1.972562 C.3        1 UNL1     0.0200
     40 C         2.589753   1.794092   -0.338392 C.3        1 UNL1     0.0661
     41 C         1.319101   1.410073   0.71782 C.3        1 UNL1     0.0091
     42 C         1.294568   0.347958   2.213384 C.3        1 UNL1     0.0661
     43 C         2.323092   -8.129536   3.975089 C.2        1 UNL1     0.2131
     44 O         2.339613   -9.344279   4.057936 O.2        1 UNL1     -0.2851
     45 O         4.736729   -9.193913   3.02307 O.3        1 UNL1     -0.5056
     46 O         2.963021   -3.111205   1.563038 O.2        1 UNL1     -0.2836
     47 C         3.026061   0.518376   4.235934 C.3        1 UNL1     -0.0566
     48 O         0.568589   1.338722   3.044321 O.3        1 UNL1     -0.3909
     49 C         0.097592   1.0509   -0.098516 C.3        1 UNL1     -0.0577
     50 O         3.70194   0.961275   -0.079201 O.3        1 UNL1     -0.3910
     51 O         4.323029   0.053834   -2.708962 O.3        1 UNL1     -0.3753
     52 C         0.964116   -1.336945   -1.766885 C.3        1 UNL1     -0.0564
     53 O         0.2376   1.489332   -3.249016 O.3        1 UNL1     -0.4608
     54 C         -0.414074   2.602866   -2.787179 C.2        1 UNL1     0.3042
     55 O         -1.17641   3.336397   -3.415362 O.2        1 UNL1     -0.2512
     56 C         -0.176305   2.87757   -1.329538 C.3        1 UNL1     0.0332
     57 C         3.757433   2.548066   -2.766367 C.3        1 UNL1     -0.0567
     58 C         3.630958   -4.80569   -1.182806 C.3        1 UNL1     0.0210
     59 C         5.031316   0.239262   -3.93363 C.3        1 UNL1     0.0372
     60 C         3.703001   -1.925884   -1.655815 C.2        1 UNL1     -0.0208
     61 C         4.761772   -1.964287   -0.845708 C.2        1 UNL1     0.0882
     62 H         2.697477   -1.133345   2.913751 H        1 UNL1     0.0365
     63 H         2.760252   -2.727286   4.188756 H        1 UNL1     0.0576
     64 H         0.947233   -2.265545   6.637538 H        1 UNL1     0.0615
     65 H         2.656459   -4.700826   5.685796 H        1 UNL1     0.0622
     66 H         3.461134   -1.518486   -3.67959 H        1 UNL1     0.0645
     67 H         1.444547   -0.86012   -3.691365 H        1 UNL1     0.0362
     68 H         2.070887   1.231808   -3.90933 H        1 UNL1     0.0741
     69 H         1.954421   3.059728   -1.993205 H        1 UNL1     0.0359
     70 H         2.905864   2.794981   0.01283 H        1 UNL1     0.0600
     71 H         1.05125   2.423924   1.074638 H        1 UNL1     0.0348
     72 H         2.349989   0.60391   2.040491 H        1 UNL1     0.0602
     73 H         3.014262   -2.733813   -1.667566 H        1 UNL1     0.0628
     74 H         5.480898   -1.152413   -0.731883 H        1 UNL1     0.1022
     75 H         1.080299   -5.67681   9.379227 H        1 UNL1     0.0279
     76 H         -0.329463   -5.104648   8.580164 H        1 UNL1     0.0279
     77 H         0.226717   -6.82009   8.427785 H        1 UNL1     0.0279
     78 H         0.028403   -7.233245   6.147235 H        1 UNL1     0.1553
     79 H         -0.725817   -5.578839   5.359631 H        1 UNL1     0.1484
     80 H         -1.646471   -4.226856   1.929757 H        1 UNL1     0.0317
     81 H         -1.0122   -5.848044   2.173425 H        1 UNL1     0.0317
     82 H         -2.370143   -6.127915   4.264206 H        1 UNL1     0.0428
     83 H         -3.351913   -5.753261   2.865111 H        1 UNL1     0.0428
     84 H         -2.478085   -2.526554   5.497206 H        1 UNL1     0.0428
     85 H         -1.851331   -4.074454   5.944763 H        1 UNL1     0.0428
     86 H         -0.274139   -2.495298   4.829603 H        1 UNL1     0.0317
     87 H         -1.210016   -2.407605   3.40876 H        1 UNL1     0.0317
     88 H         -4.423643   -5.278402   5.312878 H        1 UNL1     0.0429
     89 H         -4.617513   -3.538635   5.540605 H        1 UNL1     0.0429
     90 H         -5.535792   -5.335004   3.259381 H        1 UNL1     0.0308
     91 H         -7.495025   -3.497669   3.493693 H        1 UNL1     0.0233
     92 H         -7.371317   -4.852879   4.64417 H        1 UNL1     0.0233
     93 H         -6.803228   -3.259259   5.093893 H        1 UNL1     0.0233
     94 H         -5.875661   -3.36666   1.804113 H        1 UNL1     0.0233
     95 H         -4.923449   -2.393204   2.935485 H        1 UNL1     0.0233
     96 H         -4.162193   -3.748468   2.070765 H        1 UNL1     0.0233
     97 H         6.142007   -7.861412   -0.216621 H        1 UNL1     0.0280
     98 H         7.271432   -7.456205   1.04726 H        1 UNL1     0.0280
     99 H         6.373903   -9.001732   1.121559 H        1 UNL1     0.0280
     100 H         4.726112   -9.290009   3.959166 H        1 UNL1     0.2922
     101 H         2.487829   1.085151   4.99536 H        1 UNL1     0.0236
     102 H         3.467668   1.165633   3.47895 H        1 UNL1     0.0236
     103 H         3.886928   0.082414   4.769824 H        1 UNL1     0.0236
     104 H         0.307377   2.077989   2.461034 H        1 UNL1     0.2098
     105 H         -0.82598   1.505081   0.251551 H        1 UNL1     0.0234
     106 H         0.20802   1.199137   -1.172647 H        1 UNL1     0.0234
     107 H         0.0   0.0   0.0 H        1 UNL1     0.0234
     108 H         4.117031   1.279901   0.745387 H        1 UNL1     0.2098
     109 H         0.944946   -2.399093   -2.048286 H        1 UNL1     0.0234
     110 H         1.260736   -1.241384   -0.716824 H        1 UNL1     0.0234
     111 H         -0.083356   -1.007384   -1.778665 H        1 UNL1     0.0234
     112 H         0.784738   3.384021   -1.198203 H        1 UNL1     0.0342
     113 H         -0.985759   3.453907   -0.884046 H        1 UNL1     0.0342
     114 H         -0.124284   1.914668   -0.802964 H        1 UNL1     0.0342
     115 H         3.718713   3.609281   -3.048345 H        1 UNL1     0.0234
     116 H         4.68647   2.388367   -2.215518 H        1 UNL1     0.0234
     117 H         3.860926   2.068539   -3.754945 H        1 UNL1     0.0234
     118 H         3.851803   -4.291941   -2.134802 H        1 UNL1     0.0309
     119 H         3.752336   -5.884679   -1.321565 H        1 UNL1     0.0309
     120 H         2.557129   -4.636254   -1.047568 H        1 UNL1     0.0309
     121 H         4.416823   0.867345   -4.578042 H        1 UNL1     0.0524
     122 H         5.993931   0.75658   -3.786007 H        1 UNL1     0.0524
     123 H         5.215692   -0.719448   -4.410049 H        1 UNL1     0.0524
@<TRIPOS>BOND
     1     1     2    1
     2     1    42    1
     3     2     3    2
     4     3     4    1
     5     4     5    2
     6     5     7    1
     7     6    75    1
     8     6    76    1
     9     6    77    1
    10     7     9   am
    11     9    10    1
    12    10    11    2
    13    10    43    1
    14    11    14    1
    15    11    15    1
    16    12    13   ar
    17    12    27   ar
    18    12    43    1
    19    13    14    1
    20    13    30   ar
    21    14    17    2
    22    15    16    1
    23    16    17    1
    24    16    18    1
    25    16    22    1
    26    18    19    1
    27    19    20    1
    28    20    21    1
    29    21    22    1
    30    23    24    1
    31    23    88    1
    32    23    89    1
    33    24    25    1
    34    24    26    1
    35    24    90    1
    36    25    91    1
    37    25    92    1
    38    25    93    1
    39    26    94    1
    40    26    95    1
    41    26    96    1
    42    27    28   ar
    43    28    29   ar
    44    29    30   ar
    45    29    31    1
    46    30    33    1
    47    31    32    1
    48    32    33    1
    49    32    35    1
    50    34    97    1
    51    34    98    1
    52    34    99    1
    53    35    61    1
    54    36    37    1
    55    36    60    1
    56    37    38    1
    57    38    39    1
    58    39    40    1
    59    40    41    1
    60    41    42    1
    61    45   100    1
    62    47   101    1
    63    47   102    1
    64    47   103    1
    65    48   104    1
    66    49   105    1
    67    49   106    1
    68    49   107    1
    69    50   108    1
    70    51    59    1
    71    52   109    1
    72    52   110    1
    73    52   111    1
    74    53    54    1
    75    54    55    2
    76    54    56    1
    77    56   112    1
    78    56   113    1
    79    56   114    1
    80    57   115    1
    81    57   116    1
    82    57   117    1
    83    58   118    1
    84    58   119    1
    85    58   120    1
    86    59   121    1
    87    59   122    1
    88    59   123    1
    89    60    61    2
    90     1    47    1
    91     1    62    1
    92     2    63    1
    93     3    64    1
    94     4    65    1
    95     5     6    1
    96     7     8    2
    97     9    78    1
    98    15    79    1
    99    18    80    1
   100    18    81    1
   101    19    82    1
   102    19    83    1
   103    20    23    1
   104    21    84    1
   105    21    85    1
   106    22    86    1
   107    22    87    1
   108    27    45    1
   109    28    34    1
   110    32    58    1
   111    33    46    2
   112    36    51    1
   113    36    66    1
   114    37    52    1
   115    37    67    1
   116    38    53    1
   117    38    68    1
   118    42    48    1
   119    42    72    1
   120    43    44    2
   121    60    73    1
   122    61    74    1
   123    39    69    1
   124    39    57    1
   125    40    70    1
   126    40    50    1
   127    41    71    1
   128    41    49    1
