@<TRIPOS>MOLECULE
*****
 123 128 0 0 0
SMALL
GASTEIGER

@<TRIPOS>ATOM
     1 C         5.172968   1.731251   0.48968 C.3        1 UNL1     0.0009
     2 C         6.614071   2.527779   -0.362259 C.2        1 UNL1     -0.0787
     3 C         7.89589   2.421348   -1.026833 C.2        1 UNL1     -0.0649
     4 C         8.779767   3.649873   -1.785677 C.2        1 UNL1     -0.0542
     5 C         9.801796   3.934679   -2.724516 C.2        1 UNL1     0.0115
     6 C         10.927525   3.301117   -3.587451 C.3        1 UNL1     -0.0348
     7 C         9.904672   5.415565   -3.335568 C.2        1 UNL1     0.2441
     8 O         10.732262   6.234405   -2.959908 O.2        1 UNL1     -0.2702
     9 N         9.156211   5.622498   -4.507377 N.am        1 UNL1     -0.2772
     10 C         7.875173   6.016328   -4.195672 C.2        1 UNL1     0.1049
     11 C         7.024527   5.049914   -3.901276 C.2        1 UNL1     0.0801
     12 C         6.583629   7.633599   -2.790792 C.ar        1 UNL1     0.0753
     13 C         5.818857   6.510751   -2.340298 C.ar        1 UNL1     0.0305
     14 C         5.92991   5.2025   -2.981544 C.2        1 UNL1     0.0924
     15 N         7.140844   3.719872   -4.056151 N.pl3        1 UNL1     -0.3170
     16 C         5.86791   3.127807   -3.74095 C.3        1 UNL1     0.1275
     17 N         5.235489   4.089142   -2.764424 N.2        1 UNL1     -0.2557
     18 C         5.01617   3.187051   -5.00536 C.3        1 UNL1     0.0016
     19 C         5.768473   2.49582   -6.13134 C.3        1 UNL1     0.0026
     20 N         6.031721   1.117641   -5.741019 N.3        1 UNL1     -0.3018
     21 C         6.793498   0.957431   -4.500698 C.3        1 UNL1     0.0026
     22 C         6.017368   1.655181   -3.382368 C.3        1 UNL1     0.0016
     23 C         6.472988   0.292521   -6.847863 C.3        1 UNL1     0.0012
     24 C         5.316987   0.045558   -7.829915 C.3        1 UNL1     -0.0339
     25 C         5.358232   1.033862   -9.007035 C.3        1 UNL1     -0.0615
     26 C         5.339462   -1.395562   -8.308924 C.3        1 UNL1     -0.0615
     27 C         6.384734   8.903938   -2.255258 C.ar        1 UNL1     0.1347
     28 C         5.426368   9.181092   -1.296732 C.ar        1 UNL1     0.0342
     29 C         4.719051   8.051474   -0.833234 C.ar        1 UNL1     0.1435
     30 C         4.932638   6.766836   -1.334539 C.ar        1 UNL1     0.0774
     31 O         3.678071   8.172712   0.019215 O.3        1 UNL1     -0.4436
     32 C         2.950552   6.942946   -0.119581 C.3        1 UNL1     0.3143
     33 C         3.959392   5.943317   -0.647971 C.2        1 UNL1     0.2504
     34 C         4.985836   10.550699   -0.860605 C.3        1 UNL1     -0.0327
     35 O         2.586973   6.512094   1.197776 O.2        1 UNL1     -0.4528
     36 C         -0.665094   4.594326   0.804943 C.3        1 UNL1     0.0854
     37 C         -0.975899   3.332434   -0.088675 C.3        1 UNL1     0.0236
     38 C         -1.583027   2.076762   0.702797 C.3        1 UNL1     0.1131
     39 C         -0.860666   1.546401   2.006323 C.3        1 UNL1     0.0200
     40 C         0.799779   1.392984   2.049027 C.3        1 UNL1     0.0661
     41 C         1.756176   0.615896   0.883243 C.3        1 UNL1     0.0091
     42 C         3.465849   0.96846   0.319223 C.3        1 UNL1     0.0661
     43 C         7.533372   7.417824   -3.910475 C.2        1 UNL1     0.2131
     44 O         7.938036   8.311717   -4.631543 O.2        1 UNL1     -0.2851
     45 O         7.202272   9.933683   -2.716446 O.3        1 UNL1     -0.5056
     46 O         3.969497   4.740134   -0.513429 O.2        1 UNL1     -0.2836
     47 C         5.566342   1.304364   1.929474 C.3        1 UNL1     -0.0566
     48 O         3.907553   -0.444528   0.405704 O.3        1 UNL1     -0.3909
     49 C         0.921663   0.383455   -0.356537 C.3        1 UNL1     -0.0577
     50 O         1.405593   2.609162   2.438417 O.3        1 UNL1     -0.3910
     51 O         -0.790977   4.409602   2.19687 O.3        1 UNL1     -0.3753
     52 C         0.068501   3.163329   -1.240015 C.3        1 UNL1     -0.0564
     53 O         -2.190062   1.037886   -0.194182 O.3        1 UNL1     -0.4608
     54 C         -2.430984   -0.266652   0.149425 C.2        1 UNL1     0.3042
     55 O         -1.866433   -1.269878   -0.284923 O.2        1 UNL1     -0.2512
     56 C         -3.472467   -0.423931   1.220542 C.3        1 UNL1     0.0332
     57 C         -1.579257   2.222804   3.265005 C.3        1 UNL1     -0.0567
     58 C         1.877237   7.189823   -1.205203 C.3        1 UNL1     0.0210
     59 C         -1.098953   5.592413   2.93306 C.3        1 UNL1     0.0372
     60 C         0.667066   5.216272   0.573221 C.2        1 UNL1     -0.0208
     61 C         1.58154   5.649818   1.441851 C.2        1 UNL1     0.0882
     62 H         4.701744   2.717974   0.573562 H        1 UNL1     0.0365
     63 H         6.352843   3.583174   -0.260423 H        1 UNL1     0.0576
     64 H         8.349016   1.451616   -1.24456 H        1 UNL1     0.0615
     65 H         8.296886   4.568689   -1.442038 H        1 UNL1     0.0622
     66 H         -1.405939   5.34346   0.491906 H        1 UNL1     0.0645
     67 H         -1.83956   3.644053   -0.70149 H        1 UNL1     0.0362
     68 H         -2.5282   2.519299   1.052555 H        1 UNL1     0.0741
     69 H         -1.197184   0.53753   2.204674 H        1 UNL1     0.0359
     70 H         0.907815   0.734886   2.93237 H        1 UNL1     0.0600
     71 H         1.794564   -0.404124   1.313406 H        1 UNL1     0.0348
     72 H         3.361708   1.460237   1.297295 H        1 UNL1     0.0602
     73 H         0.786562   5.409702   -0.463868 H        1 UNL1     0.0628
     74 H         1.562308   5.442595   2.512331 H        1 UNL1     0.1022
     75 H         10.9645   2.195711   -3.433355 H        1 UNL1     0.0279
     76 H         10.816457   3.383661   -4.666302 H        1 UNL1     0.0279
     77 H         11.933954   3.599551   -3.259217 H        1 UNL1     0.0279
     78 H         9.090343   4.751218   -5.029496 H        1 UNL1     0.1553
     79 H         7.804428   3.286745   -4.671772 H        1 UNL1     0.1484
     80 H         4.052411   2.70137   -4.810304 H        1 UNL1     0.0317
     81 H         4.794736   4.22403   -5.279755 H        1 UNL1     0.0317
     82 H         6.701843   3.021848   -6.380393 H        1 UNL1     0.0428
     83 H         5.144151   2.551181   -7.023645 H        1 UNL1     0.0428
     84 H         6.908592   -0.085115   -4.188185 H        1 UNL1     0.0428
     85 H         7.825419   1.320164   -4.605009 H        1 UNL1     0.0428
     86 H         6.532009   1.40518   -2.473175 H        1 UNL1     0.0317
     87 H         5.035552   1.182667   -3.256409 H        1 UNL1     0.0317
     88 H         7.271985   0.828816   -7.376339 H        1 UNL1     0.0429
     89 H         6.900796   -0.654221   -6.493697 H        1 UNL1     0.0429
     90 H         4.364209   0.170886   -7.301975 H        1 UNL1     0.0308
     91 H         6.31148   0.976811   -9.541044 H        1 UNL1     0.0233
     92 H         4.542823   0.835624   -9.70662 H        1 UNL1     0.0233
     93 H         5.236911   2.07459   -8.682995 H        1 UNL1     0.0233
     94 H         4.64487   -1.526304   -9.145755 H        1 UNL1     0.0233
     95 H         6.341942   -1.6574   -8.658834 H        1 UNL1     0.0233
     96 H         5.052688   -2.085908   -7.510707 H        1 UNL1     0.0233
     97 H         4.185516   10.507212   -0.12792 H        1 UNL1     0.0280
     98 H         5.79859   11.114841   -0.384758 H        1 UNL1     0.0280
     99 H         4.624255   11.117623   -1.734075 H        1 UNL1     0.0280
     100 H         6.739082   10.686047   -3.040524 H        1 UNL1     0.2922
     101 H         4.701133   0.876478   2.43542 H        1 UNL1     0.0236
     102 H         6.02064   2.109342   2.506196 H        1 UNL1     0.0236
     103 H         6.318713   0.498059   1.931376 H        1 UNL1     0.0236
     104 H         4.325613   -0.569882   1.280051 H        1 UNL1     0.2098
     105 H         0.70865   1.282381   -0.929571 H        1 UNL1     0.0234
     106 H         1.291012   -0.40433   -1.01297 H        1 UNL1     0.0234
     107 H         0.0   -0.0   0.0 H        1 UNL1     0.0234
     108 H         1.216041   3.264482   1.739565 H        1 UNL1     0.2098
     109 H         1.094048   3.058494   -0.859261 H        1 UNL1     0.0234
     110 H         -0.16088   2.327605   -1.90986 H        1 UNL1     0.0234
     111 H         0.085547   4.038765   -1.902788 H        1 UNL1     0.0234
     112 H         -3.601122   -1.483449   1.46182 H        1 UNL1     0.0342
     113 H         -3.233338   0.153601   2.112236 H        1 UNL1     0.0342
     114 H         -4.427839   -0.049557   0.827765 H        1 UNL1     0.0342
     115 H         -2.659196   2.020812   3.275971 H        1 UNL1     0.0234
     116 H         -1.176244   1.906544   4.229167 H        1 UNL1     0.0234
     117 H         -1.569084   3.326005   3.23697 H        1 UNL1     0.0234
     118 H         0.977634   7.680954   -0.794702 H        1 UNL1     0.0309
     119 H         2.249541   7.774659   -2.052291 H        1 UNL1     0.0309
     120 H         1.485549   6.258443   -1.628545 H        1 UNL1     0.0309
     121 H         -0.274439   6.29118   2.794288 H        1 UNL1     0.0524
     122 H         -2.016156   6.084741   2.569206 H        1 UNL1     0.0524
     123 H         -1.218725   5.358558   3.987128 H        1 UNL1     0.0524
@<TRIPOS>BOND
     1     1     2    1
     2     1    42    1
     3     2     3    2
     4     3     4    1
     5     4     5    2
     6     5     7    1
     7     6    75    1
     8     6    76    1
     9     6    77    1
    10     7     9   am
    11     9    10    1
    12    10    11    2
    13    10    43    1
    14    11    14    1
    15    11    15    1
    16    12    13   ar
    17    12    27   ar
    18    12    43    1
    19    13    14    1
    20    13    30   ar
    21    14    17    2
    22    15    16    1
    23    16    17    1
    24    16    18    1
    25    16    22    1
    26    18    19    1
    27    19    20    1
    28    20    21    1
    29    21    22    1
    30    23    24    1
    31    23    88    1
    32    23    89    1
    33    24    25    1
    34    24    26    1
    35    24    90    1
    36    25    91    1
    37    25    92    1
    38    25    93    1
    39    26    94    1
    40    26    95    1
    41    26    96    1
    42    27    28   ar
    43    28    29   ar
    44    29    30   ar
    45    29    31    1
    46    30    33    1
    47    31    32    1
    48    32    33    1
    49    32    35    1
    50    34    97    1
    51    34    98    1
    52    34    99    1
    53    35    61    1
    54    36    37    1
    55    36    60    1
    56    37    38    1
    57    38    39    1
    58    39    40    1
    59    40    41    1
    60    41    42    1
    61    45   100    1
    62    47   101    1
    63    47   102    1
    64    47   103    1
    65    48   104    1
    66    49   105    1
    67    49   106    1
    68    49   107    1
    69    50   108    1
    70    51    59    1
    71    52   109    1
    72    52   110    1
    73    52   111    1
    74    53    54    1
    75    54    55    2
    76    54    56    1
    77    56   112    1
    78    56   113    1
    79    56   114    1
    80    57   115    1
    81    57   116    1
    82    57   117    1
    83    58   118    1
    84    58   119    1
    85    58   120    1
    86    59   121    1
    87    59   122    1
    88    59   123    1
    89    60    61    2
    90     1    47    1
    91     1    62    1
    92     2    63    1
    93     3    64    1
    94     4    65    1
    95     5     6    1
    96     7     8    2
    97     9    78    1
    98    15    79    1
    99    18    80    1
   100    18    81    1
   101    19    82    1
   102    19    83    1
   103    20    23    1
   104    21    84    1
   105    21    85    1
   106    22    86    1
   107    22    87    1
   108    27    45    1
   109    28    34    1
   110    32    58    1
   111    33    46    2
   112    36    51    1
   113    36    66    1
   114    37    52    1
   115    37    67    1
   116    38    53    1
   117    38    68    1
   118    42    48    1
   119    42    72    1
   120    43    44    2
   121    60    73    1
   122    61    74    1
   123    39    69    1
   124    39    57    1
   125    40    70    1
   126    40    50    1
   127    41    71    1
   128    41    49    1
