@<TRIPOS>MOLECULE
*****
 123 128 0 0 0
SMALL
GASTEIGER

@<TRIPOS>ATOM
     1 C         -2.352428   1.529473   4.081164 C.3        1 UNL1     0.0009
     2 C         -4.062274   1.858454   4.717744 C.2        1 UNL1     -0.0787
     3 C         -5.217797   2.724119   4.824692 C.2        1 UNL1     -0.0649
     4 C         -6.714041   2.37908   5.537824 C.2        1 UNL1     -0.0542
     5 C         -8.081008   2.745388   5.603373 C.2        1 UNL1     0.0115
     6 C         -9.114047   3.825933   5.18079 C.3        1 UNL1     -0.0348
     7 C         -9.137179   1.699939   6.210438 C.2        1 UNL1     0.2441
     8 O         -9.589325   1.792805   7.343339 O.2        1 UNL1     -0.2702
     9 N         -9.705486   0.823448   5.269724 N.am        1 UNL1     -0.2772
     10 C         -8.923503   -0.29958   5.12608 C.2        1 UNL1     0.1049
     11 C         -7.89423   -0.191082   4.305685 C.2        1 UNL1     0.0801
     12 C         -7.743058   -2.07527   6.434059 C.ar        1 UNL1     0.0753
     13 C         -6.58415   -1.771772   5.650841 C.ar        1 UNL1     0.0305
     14 C         -6.660866   -0.911036   4.472581 C.2        1 UNL1     0.0924
     15 N         -7.594617   0.773117   3.41851 N.pl3        1 UNL1     -0.3170
     16 C         -6.458397   0.33005   2.654998 C.3        1 UNL1     0.1275
     17 N         -5.72122   -0.604848   3.582501 N.2        1 UNL1     -0.2557
     18 C         -6.988753   -0.534916   1.515587 C.3        1 UNL1     0.0016
     19 C         -8.001744   0.274367   0.721547 C.3        1 UNL1     0.0026
     20 N         -7.347271   1.47074   0.210289 N.3        1 UNL1     -0.3018
     21 C         -6.750663   2.3367   1.229377 C.3        1 UNL1     0.0026
     22 C         -5.733102   1.504733   2.01187 C.3        1 UNL1     0.0016
     23 C         -8.130708   2.1543   -0.799471 C.3        1 UNL1     0.0012
     24 C         -9.624295   1.834394   -0.630314 C.3        1 UNL1     -0.0339
     25 C         -10.504403   2.839495   -1.391391 C.3        1 UNL1     -0.0615
     26 C         -9.903391   0.406017   -1.064622 C.3        1 UNL1     -0.0615
     27 C         -7.686299   -2.990828   7.482224 C.ar        1 UNL1     0.1347
     28 C         -6.541274   -3.692516   7.814796 C.ar        1 UNL1     0.0342
     29 C         -5.400772   -3.341385   7.061719 C.ar        1 UNL1     0.1435
     30 C         -5.43411   -2.39967   6.032504 C.ar        1 UNL1     0.0774
     31 O         -4.236185   -4.013627   7.191468 O.3        1 UNL1     -0.4436
     32 C         -3.508483   -3.713458   5.990959 C.3        1 UNL1     0.3143
     33 C         -4.091375   -2.407324   5.490497 C.2        1 UNL1     0.2504
     34 C         -6.4668   -4.864571   8.753327 C.3        1 UNL1     -0.0327
     35 O         -2.152552   -3.447079   6.370097 O.2        1 UNL1     -0.4528
     36 C         -0.018091   -4.511183   3.417158 C.3        1 UNL1     0.0854
     37 C         -0.078222   -4.025264   1.917895 C.3        1 UNL1     0.0236
     38 C         1.304485   -3.459757   1.334741 C.3        1 UNL1     0.1131
     39 C         2.10408   -2.357816   2.140125 C.3        1 UNL1     0.0200
     40 C         1.302619   -1.068207   2.830783 C.3        1 UNL1     0.0661
     41 C         0.180912   -0.062494   2.051089 C.3        1 UNL1     0.0091
     42 C         -1.292736   0.810476   2.708117 C.3        1 UNL1     0.0661
     43 C         -9.028644   -1.449745   6.036257 C.2        1 UNL1     0.2131
     44 O         -10.118551   -1.899345   6.340724 O.2        1 UNL1     -0.2851
     45 O         -8.848025   -3.195167   8.223895 O.3        1 UNL1     -0.5056
     46 O         -3.55973   -1.554624   4.815137 O.2        1 UNL1     -0.2836
     47 C         -1.309937   2.351217   4.886106 C.3        1 UNL1     -0.0566
     48 O         -0.953232   2.104165   2.06763 O.3        1 UNL1     -0.3909
     49 C         -0.234572   -0.711657   0.74976 C.3        1 UNL1     -0.0577
     50 O         0.836313   -1.401674   4.122713 O.3        1 UNL1     -0.3910
     51 O         1.178587   -4.231423   4.107902 O.3        1 UNL1     -0.3753
     52 C         -1.455526   -3.370031   1.573435 C.3        1 UNL1     -0.0564
     53 O         1.319959   -3.336839   -0.160912 O.3        1 UNL1     -0.4608
     54 C         0.219913   -3.402173   -0.975504 C.2        1 UNL1     0.3042
     55 O         -0.949471   -3.170005   -0.671401 O.2        1 UNL1     -0.2512
     56 C         0.546574   -3.746839   -2.40071 C.3        1 UNL1     0.0332
     57 C         3.205667   -3.109917   3.022749 C.3        1 UNL1     -0.0567
     58 C         -3.851403   -4.832543   4.980225 C.3        1 UNL1     0.0210
     59 C         1.315342   -4.895608   5.363299 C.3        1 UNL1     0.0372
     60 C         -1.133097   -4.031976   4.278716 C.2        1 UNL1     -0.0208
     61 C         -1.116371   -3.528262   5.513518 C.2        1 UNL1     0.0882
     62 H         -2.392185   0.535813   4.543519 H        1 UNL1     0.0365
     63 H         -4.225603   0.969904   5.331155 H        1 UNL1     0.0576
     64 H         -5.276652   3.669989   4.281577 H        1 UNL1     0.0615
     65 H         -6.524748   1.468864   6.113288 H        1 UNL1     0.0622
     66 H         -0.130648   -5.602925   3.358197 H        1 UNL1     0.0645
     67 H         -0.195891   -4.957452   1.338465 H        1 UNL1     0.0362
     68 H         1.918022   -4.37128   1.399706 H        1 UNL1     0.0741
     69 H         2.799962   -1.872521   1.468824 H        1 UNL1     0.0359
     70 H         2.156644   -0.387875   3.012028 H        1 UNL1     0.0600
     71 H         0.856954   0.736683   1.688818 H        1 UNL1     0.0348
     72 H         -0.667849   0.571246   3.580815 H        1 UNL1     0.0602
     73 H         -2.058622   -4.260315   3.811262 H        1 UNL1     0.0628
     74 H         -0.214085   -3.213582   6.038964 H        1 UNL1     0.1022
     75 H         -8.594424   4.730243   4.78173 H        1 UNL1     0.0279
     76 H         -9.785423   3.563054   4.366407 H        1 UNL1     0.0279
     77 H         -9.660334   4.24961   6.036225 H        1 UNL1     0.0279
     78 H         -9.754241   1.280962   4.361769 H        1 UNL1     0.1553
     79 H         -8.263665   1.432174   3.065026 H        1 UNL1     0.1484
     80 H         -6.148268   -0.852407   0.88666 H        1 UNL1     0.0317
     81 H         -7.453956   -1.448297   1.901558 H        1 UNL1     0.0317
     82 H         -8.881736   0.533324   1.328562 H        1 UNL1     0.0428
     83 H         -8.368464   -0.361785   -0.084603 H        1 UNL1     0.0428
     84 H         -6.19739   3.185133   0.814814 H        1 UNL1     0.0428
     85 H         -7.514004   2.802353   1.867966 H        1 UNL1     0.0428
     86 H         -5.224473   2.199049   2.654684 H        1 UNL1     0.0317
     87 H         -4.940445   1.15339   1.340045 H        1 UNL1     0.0317
     88 H         -7.987795   3.234971   -0.669007 H        1 UNL1     0.0429
     89 H         -7.784097   1.903775   -1.810348 H        1 UNL1     0.0429
     90 H         -9.883024   1.879755   0.434212 H        1 UNL1     0.0308
     91 H         -9.897989   3.524557   -1.991436 H        1 UNL1     0.0233
     92 H         -11.209277   2.319046   -2.043997 H        1 UNL1     0.0233
     93 H         -11.11037   3.457671   -0.717967 H        1 UNL1     0.0233
     94 H         -10.939244   0.136141   -0.832221 H        1 UNL1     0.0233
     95 H         -9.764322   0.310078   -2.145093 H        1 UNL1     0.0233
     96 H         -9.240214   -0.301563   -0.559156 H        1 UNL1     0.0233
     97 H         -7.348856   -5.494711   8.68906 H        1 UNL1     0.0280
     98 H         -5.61339   -5.518647   8.53167 H        1 UNL1     0.0280
     99 H         -6.376074   -4.50182   9.790283 H        1 UNL1     0.0280
     100 H         -9.294296   -4.002567   8.037965 H        1 UNL1     0.2922
     101 H         -0.481379   2.631456   4.236018 H        1 UNL1     0.0236
     102 H         -0.968704   1.844469   5.788186 H        1 UNL1     0.0236
     103 H         -1.723341   3.30982   5.241593 H        1 UNL1     0.0236
     104 H         -1.645356   2.295792   1.404898 H        1 UNL1     0.2098
     105 H         0.298506   -1.62969   0.515551 H        1 UNL1     0.0234
     106 H         -1.30856   -0.859182   0.637008 H        1 UNL1     0.0234
     107 H         0.0   0.0   0.0 H        1 UNL1     0.0234
     108 H         0.515259   -2.323286   4.086326 H        1 UNL1     0.2098
     109 H         -2.299943   -4.040303   1.786527 H        1 UNL1     0.0234
     110 H         -1.613463   -2.410215   2.076974 H        1 UNL1     0.0234
     111 H         -1.531846   -3.126082   0.505441 H        1 UNL1     0.0234
     112 H         -0.322109   -4.207723   -2.880628 H        1 UNL1     0.0342
     113 H         0.889654   -2.879935   -2.963398 H        1 UNL1     0.0342
     114 H         1.360487   -4.484876   -2.397315 H        1 UNL1     0.0342
     115 H         2.971782   -3.062386   4.095235 H        1 UNL1     0.0234
     116 H         3.340785   -4.161596   2.762433 H        1 UNL1     0.0234
     117 H         4.195863   -2.623215   2.998811 H        1 UNL1     0.0234
     118 H         -3.193049   -5.711341   5.095517 H        1 UNL1     0.0309
     119 H         -4.895257   -5.157204   5.036503 H        1 UNL1     0.0309
     120 H         -3.684595   -4.526524   3.941653 H        1 UNL1     0.0309
     121 H         0.570622   -4.477794   6.040189 H        1 UNL1     0.0524
     122 H         1.123613   -5.97884   5.286587 H        1 UNL1     0.0524
     123 H         2.313593   -4.741682   5.763168 H        1 UNL1     0.0524
@<TRIPOS>BOND
     1     1     2    1
     2     1    42    1
     3     2     3    2
     4     3     4    1
     5     4     5    2
     6     5     7    1
     7     6    75    1
     8     6    76    1
     9     6    77    1
    10     7     9   am
    11     9    10    1
    12    10    11    2
    13    10    43    1
    14    11    14    1
    15    11    15    1
    16    12    13   ar
    17    12    27   ar
    18    12    43    1
    19    13    14    1
    20    13    30   ar
    21    14    17    2
    22    15    16    1
    23    16    17    1
    24    16    18    1
    25    16    22    1
    26    18    19    1
    27    19    20    1
    28    20    21    1
    29    21    22    1
    30    23    24    1
    31    23    88    1
    32    23    89    1
    33    24    25    1
    34    24    26    1
    35    24    90    1
    36    25    91    1
    37    25    92    1
    38    25    93    1
    39    26    94    1
    40    26    95    1
    41    26    96    1
    42    27    28   ar
    43    28    29   ar
    44    29    30   ar
    45    29    31    1
    46    30    33    1
    47    31    32    1
    48    32    33    1
    49    32    35    1
    50    34    97    1
    51    34    98    1
    52    34    99    1
    53    35    61    1
    54    36    37    1
    55    36    60    1
    56    37    38    1
    57    38    39    1
    58    39    40    1
    59    40    41    1
    60    41    42    1
    61    45   100    1
    62    47   101    1
    63    47   102    1
    64    47   103    1
    65    48   104    1
    66    49   105    1
    67    49   106    1
    68    49   107    1
    69    50   108    1
    70    51    59    1
    71    52   109    1
    72    52   110    1
    73    52   111    1
    74    53    54    1
    75    54    55    2
    76    54    56    1
    77    56   112    1
    78    56   113    1
    79    56   114    1
    80    57   115    1
    81    57   116    1
    82    57   117    1
    83    58   118    1
    84    58   119    1
    85    58   120    1
    86    59   121    1
    87    59   122    1
    88    59   123    1
    89    60    61    2
    90     1    47    1
    91     1    62    1
    92     2    63    1
    93     3    64    1
    94     4    65    1
    95     5     6    1
    96     7     8    2
    97     9    78    1
    98    15    79    1
    99    18    80    1
   100    18    81    1
   101    19    82    1
   102    19    83    1
   103    20    23    1
   104    21    84    1
   105    21    85    1
   106    22    86    1
   107    22    87    1
   108    27    45    1
   109    28    34    1
   110    32    58    1
   111    33    46    2
   112    36    51    1
   113    36    66    1
   114    37    52    1
   115    37    67    1
   116    38    53    1
   117    38    68    1
   118    42    48    1
   119    42    72    1
   120    43    44    2
   121    60    73    1
   122    61    74    1
   123    39    69    1
   124    39    57    1
   125    40    70    1
   126    40    50    1
   127    41    71    1
   128    41    49    1
