@<TRIPOS>MOLECULE
*****
 123 128 0 0 0
SMALL
GASTEIGER

@<TRIPOS>ATOM
     1 C         0.052536   0.842909   4.057145 C.3        1 UNL1     0.0009
     2 C         -1.052842   0.17893   5.389176 C.2        1 UNL1     -0.0787
     3 C         -2.246213   0.288275   6.201553 C.2        1 UNL1     -0.0649
     4 C         -2.854757   -0.834363   7.313181 C.2        1 UNL1     -0.0542
     5 C         -4.00444   -1.257636   8.024621 C.2        1 UNL1     0.0115
     6 C         -5.464785   -0.877189   8.393369 C.3        1 UNL1     -0.0348
     7 C         -4.026169   -2.731969   8.659332 C.2        1 UNL1     0.2441
     8 O         -3.842337   -2.946821   9.84953 O.2        1 UNL1     -0.2702
     9 N         -4.527368   -3.732274   7.80825 N.am        1 UNL1     -0.2772
     10 C         -3.516405   -4.256625   7.036025 C.2        1 UNL1     0.1049
     11 C         -3.204224   -3.578041   5.946856 C.2        1 UNL1     0.0801
     12 C         -1.19775   -5.185988   7.168152 C.ar        1 UNL1     0.0753
     13 C         -0.8571   -4.275259   6.117848 C.ar        1 UNL1     0.0305
     14 C         -1.881641   -3.535357   5.384423 C.2        1 UNL1     0.0924
     15 N         -3.84962   -2.563266   5.346671 N.pl3        1 UNL1     -0.3170
     16 C         -3.184325   -2.295961   4.099199 C.3        1 UNL1     0.1275
     17 N         -1.758742   -2.734483   4.329709 N.2        1 UNL1     -0.2557
     18 C         -3.760964   -3.257168   3.064177 C.3        1 UNL1     0.0016
     19 C         -5.270171   -3.078045   3.021772 C.3        1 UNL1     0.0026
     20 N         -5.567531   -1.695059   2.675428 N.3        1 UNL1     -0.3018
     21 C         -5.001648   -0.692135   3.580021 C.3        1 UNL1     0.0026
     22 C         -3.484682   -0.887443   3.603807 C.3        1 UNL1     0.0016
     23 C         -6.956743   -1.489688   2.316878 C.3        1 UNL1     0.0012
     24 C         -7.648596   -2.835612   2.049326 C.3        1 UNL1     -0.0339
     25 C         -8.842582   -3.051697   2.993657 C.3        1 UNL1     -0.0615
     26 C         -8.065258   -2.926292   0.591605 C.3        1 UNL1     -0.0615
     27 C         -0.228298   -5.976867   7.780355 C.ar        1 UNL1     0.1347
     28 C         1.102516   -5.973505   7.402239 C.ar        1 UNL1     0.0342
     29 C         1.42323   -5.03376   6.39965 C.ar        1 UNL1     0.1435
     30 C         0.469027   -4.209161   5.80236 C.ar        1 UNL1     0.0774
     31 O         2.65488   -4.985792   5.846708 O.3        1 UNL1     -0.4436
     32 C         2.468321   -4.288884   4.605584 C.3        1 UNL1     0.3143
     33 C         1.204767   -3.474121   4.794804 C.2        1 UNL1     0.2504
     34 C         2.144755   -6.966492   7.835616 C.3        1 UNL1     -0.0327
     35 O         3.54931   -3.357642   4.47329 O.2        1 UNL1     -0.4528
     36 C         4.148366   -2.981569   0.743975 C.3        1 UNL1     0.0854
     37 C         3.143444   -2.534598   -0.386455 C.3        1 UNL1     0.0236
     38 C         3.63385   -1.292352   -1.274188 C.3        1 UNL1     0.1131
     39 C         4.140172   0.027976   -0.565216 C.3        1 UNL1     0.0200
     40 C         3.312153   0.657512   0.738819 C.3        1 UNL1     0.0661
     41 C         1.641694   0.943821   0.810952 C.3        1 UNL1     0.0091
     42 C         0.480855   0.864321   2.229238 C.3        1 UNL1     0.0661
     43 C         -2.631917   -5.325692   7.522986 C.2        1 UNL1     0.2131
     44 O         -3.093797   -6.301012   8.087039 O.2        1 UNL1     -0.2851
     45 O         -0.635738   -6.803464   8.825424 O.3        1 UNL1     -0.5056
     46 O         0.887092   -2.439369   4.252379 O.2        1 UNL1     -0.2836
     47 C         0.864303   2.056295   4.585077 C.3        1 UNL1     -0.0566
     48 O         -0.158784   2.1673   1.925557 O.3        1 UNL1     -0.3909
     49 C         0.974452   0.233576   -0.345696 C.3        1 UNL1     -0.0577
     50 O         3.753824   0.067809   1.945011 O.3        1 UNL1     -0.3910
     51 O         5.259305   -2.138313   0.94932 O.3        1 UNL1     -0.3753
     52 C         1.65415   -2.700616   0.060078 C.3        1 UNL1     -0.0564
     53 O         2.848426   -1.111718   -2.540208 O.3        1 UNL1     -0.4608
     54 C         3.380601   -1.018011   -3.799548 C.2        1 UNL1     0.3042
     55 O         3.802975   -1.935575   -4.502054 O.2        1 UNL1     -0.2512
     56 C         3.370513   0.377984   -4.354354 C.3        1 UNL1     0.0332
     57 C         5.734005   -0.059637   -0.464239 C.3        1 UNL1     -0.0567
     58 C         2.208264   -5.370535   3.531372 C.3        1 UNL1     0.0210
     59 C         5.393861   -1.082194   -0.000613 C.3        1 UNL1     0.0372
     60 C         3.531494   -3.211532   2.078796 C.2        1 UNL1     -0.0208
     61 C         3.932981   -2.833882   3.293264 C.2        1 UNL1     0.0882
     62 H         0.693963   -0.038572   4.17662 H        1 UNL1     0.0365
     63 H         -0.475308   -0.686675   5.720315 H        1 UNL1     0.0576
     64 H         -2.980027   1.080473   6.037092 H        1 UNL1     0.0615
     65 H         -2.023458   -1.528319   7.464341 H        1 UNL1     0.0622
     66 H         4.520347   -3.960823   0.411201 H        1 UNL1     0.0645
     67 H         3.182381   -3.357985   -1.120674 H        1 UNL1     0.0362
     68 H         4.528737   -1.737575   -1.73514 H        1 UNL1     0.0741
     69 H         4.110272   0.839957   -1.2795 H        1 UNL1     0.0359
     70 H         3.736656   1.679497   0.758905 H        1 UNL1     0.0600
     71 H         1.610885   1.996089   0.466367 H        1 UNL1     0.0348
     72 H         1.486332   0.955812   2.665084 H        1 UNL1     0.0602
     73 H         2.710744   -3.876885   1.974289 H        1 UNL1     0.0628
     74 H         4.726813   -2.110684   3.483137 H        1 UNL1     0.1022
     75 H         -6.168264   -1.194418   7.586202 H        1 UNL1     0.0279
     76 H         -5.884519   -1.359987   9.273026 H        1 UNL1     0.0279
     77 H         -5.629771   0.210107   8.409773 H        1 UNL1     0.0279
     78 H         -5.217698   -3.330331   7.177407 H        1 UNL1     0.1553
     79 H         -4.816906   -2.347628   5.504121 H        1 UNL1     0.1484
     80 H         -3.305226   -3.047835   2.088858 H        1 UNL1     0.0317
     81 H         -3.510404   -4.294428   3.311083 H        1 UNL1     0.0317
     82 H         -5.740235   -3.356885   3.976341 H        1 UNL1     0.0428
     83 H         -5.661057   -3.773983   2.278853 H        1 UNL1     0.0428
     84 H         -5.171856   0.338598   3.253785 H        1 UNL1     0.0428
     85 H         -5.460905   -0.735626   4.577271 H        1 UNL1     0.0428
     86 H         -3.094884   -0.059161   4.16594 H        1 UNL1     0.0317
     87 H         -3.070859   -0.730257   2.600244 H        1 UNL1     0.0317
     88 H         -7.458821   -1.000511   3.161814 H        1 UNL1     0.0429
     89 H         -7.050748   -0.817717   1.454097 H        1 UNL1     0.0429
     90 H         -6.928174   -3.647197   2.205965 H        1 UNL1     0.0308
     91 H         -9.712497   -3.436772   2.453223 H        1 UNL1     0.0233
     92 H         -8.580892   -3.747499   3.794273 H        1 UNL1     0.0233
     93 H         -9.158906   -2.124098   3.485933 H        1 UNL1     0.0233
     94 H         -8.388508   -1.944383   0.229391 H        1 UNL1     0.0233
     95 H         -7.217901   -3.248953   -0.019818 H        1 UNL1     0.0233
     96 H         -8.888477   -3.63315   0.45511 H        1 UNL1     0.0233
     97 H         2.976415   -6.488361   8.344501 H        1 UNL1     0.0280
     98 H         1.744281   -7.704841   8.542522 H        1 UNL1     0.0280
     99 H         2.538487   -7.497055   6.953248 H        1 UNL1     0.0280
     100 H         -0.08656   -6.768919   9.588858 H        1 UNL1     0.2922
     101 H         1.174789   1.871618   5.613255 H        1 UNL1     0.0236
     102 H         0.335891   3.003389   4.481262 H        1 UNL1     0.0236
     103 H         1.80632   2.197699   4.029378 H        1 UNL1     0.0236
     104 H         0.243562   2.837252   2.512287 H        1 UNL1     0.2098
     105 H         0.872968   0.836456   -1.244611 H        1 UNL1     0.0234
     106 H         1.400698   -0.73945   -0.589542 H        1 UNL1     0.0234
     107 H         0.0   -0.0   0.0 H        1 UNL1     0.0234
     108 H         4.680309   0.345011   2.081219 H        1 UNL1     0.2098
     109 H         1.556731   -2.817044   1.148502 H        1 UNL1     0.0234
     110 H         1.009145   -1.883347   -0.280191 H        1 UNL1     0.0234
     111 H         1.198349   -3.599064   -0.376936 H        1 UNL1     0.0234
     112 H         3.973027   1.035004   -3.719809 H        1 UNL1     0.0342
     113 H         3.713368   0.410601   -5.387423 H        1 UNL1     0.0342
     114 H         2.335924   0.747338   -4.335175 H        1 UNL1     0.0342
     115 H         6.100072   -1.077567   -0.656599 H        1 UNL1     0.0234
     116 H         6.259609   0.612521   -1.145409 H        1 UNL1     0.0234
     117 H         6.120646   0.116953   0.554223 H        1 UNL1     0.0234
     118 H         1.239359   -5.224904   3.022433 H        1 UNL1     0.0309
     119 H         3.002156   -5.429514   2.780066 H        1 UNL1     0.0309
     120 H         2.120355   -6.375218   3.959146 H        1 UNL1     0.0309
     121 H         5.901845   -1.488006   -0.875042 H        1 UNL1     0.0524
     122 H         4.417634   -0.69305   -0.334655 H        1 UNL1     0.0524
     123 H         5.972123   -0.266358   0.423791 H        1 UNL1     0.0524
@<TRIPOS>BOND
     1     1     2    1
     2     1    42    1
     3     2     3    2
     4     3     4    1
     5     4     5    2
     6     5     7    1
     7     6    75    1
     8     6    76    1
     9     6    77    1
    10     7     9   am
    11     9    10    1
    12    10    11    2
    13    10    43    1
    14    11    14    1
    15    11    15    1
    16    12    13   ar
    17    12    27   ar
    18    12    43    1
    19    13    14    1
    20    13    30   ar
    21    14    17    2
    22    15    16    1
    23    16    17    1
    24    16    18    1
    25    16    22    1
    26    18    19    1
    27    19    20    1
    28    20    21    1
    29    21    22    1
    30    23    24    1
    31    23    88    1
    32    23    89    1
    33    24    25    1
    34    24    26    1
    35    24    90    1
    36    25    91    1
    37    25    92    1
    38    25    93    1
    39    26    94    1
    40    26    95    1
    41    26    96    1
    42    27    28   ar
    43    28    29   ar
    44    29    30   ar
    45    29    31    1
    46    30    33    1
    47    31    32    1
    48    32    33    1
    49    32    35    1
    50    34    97    1
    51    34    98    1
    52    34    99    1
    53    35    61    1
    54    36    37    1
    55    36    60    1
    56    37    38    1
    57    38    39    1
    58    39    40    1
    59    40    41    1
    60    41    42    1
    61    45   100    1
    62    47   101    1
    63    47   102    1
    64    47   103    1
    65    48   104    1
    66    49   105    1
    67    49   106    1
    68    49   107    1
    69    50   108    1
    70    51    59    1
    71    52   109    1
    72    52   110    1
    73    52   111    1
    74    53    54    1
    75    54    55    2
    76    54    56    1
    77    56   112    1
    78    56   113    1
    79    56   114    1
    80    57   115    1
    81    57   116    1
    82    57   117    1
    83    58   118    1
    84    58   119    1
    85    58   120    1
    86    59   121    1
    87    59   122    1
    88    59   123    1
    89    60    61    2
    90     1    47    1
    91     1    62    1
    92     2    63    1
    93     3    64    1
    94     4    65    1
    95     5     6    1
    96     7     8    2
    97     9    78    1
    98    15    79    1
    99    18    80    1
   100    18    81    1
   101    19    82    1
   102    19    83    1
   103    20    23    1
   104    21    84    1
   105    21    85    1
   106    22    86    1
   107    22    87    1
   108    27    45    1
   109    28    34    1
   110    32    58    1
   111    33    46    2
   112    36    51    1
   113    36    66    1
   114    37    52    1
   115    37    67    1
   116    38    53    1
   117    38    68    1
   118    42    48    1
   119    42    72    1
   120    43    44    2
   121    60    73    1
   122    61    74    1
   123    39    69    1
   124    39    57    1
   125    40    70    1
   126    40    50    1
   127    41    71    1
   128    41    49    1
