@<TRIPOS>MOLECULE
*****
 123 128 0 0 0
SMALL
GASTEIGER

@<TRIPOS>ATOM
     1 C         5.168937   1.741911   0.497416 C.3        1 UNL1     0.0009
     2 C         6.607518   2.546526   -0.35118 C.2        1 UNL1     -0.0787
     3 C         7.890027   2.446986   -1.015492 C.2        1 UNL1     -0.0649
     4 C         8.769764   3.681249   -1.769823 C.2        1 UNL1     -0.0542
     5 C         9.791183   3.972907   -2.707222 C.2        1 UNL1     0.0115
     6 C         10.919618   3.346334   -3.571723 C.3        1 UNL1     -0.0348
     7 C         9.888935   5.456184   -3.313295 C.2        1 UNL1     0.2441
     8 O         10.713354   6.276785   -2.934518 O.2        1 UNL1     -0.2702
     9 N         9.140268   5.664284   -4.484766 N.am        1 UNL1     -0.2772
     10 C         7.857655   6.052395   -4.172363 C.2        1 UNL1     0.1049
     11 C         7.010408   5.081908   -3.881591 C.2        1 UNL1     0.0801
     12 C         6.559562   7.660256   -2.762728 C.ar        1 UNL1     0.0753
     13 C         5.798685   6.533131   -2.316337 C.ar        1 UNL1     0.0305
     14 C         5.914813   5.227435   -2.961878 C.2        1 UNL1     0.0924
     15 N         7.131652   3.752823   -4.040834 N.pl3        1 UNL1     -0.3170
     16 C         5.860742   3.155069   -3.728212 C.3        1 UNL1     0.1275
     17 N         5.224362   4.110834   -2.748795 N.2        1 UNL1     -0.2557
     18 C         5.00938   3.215413   -4.992824 C.3        1 UNL1     0.0016
     19 C         5.764725   2.530684   -6.120739 C.3        1 UNL1     0.0026
     20 N         6.032823   1.152183   -5.734879 N.3        1 UNL1     -0.3018
     21 C         6.794603   0.990627   -4.494734 C.3        1 UNL1     0.0026
     22 C         6.01541   1.681813   -3.37446 C.3        1 UNL1     0.0016
     23 C         6.477615   0.332368   -6.844252 C.3        1 UNL1     0.0012
     24 C         5.321861   0.08082   -7.825432 C.3        1 UNL1     -0.0339
     25 C         5.340412   1.088636   -8.986475 C.3        1 UNL1     -0.0615
     26 C         5.367758   -1.351725   -8.327914 C.3        1 UNL1     -0.0615
     27 C         6.355779   8.928071   -2.223065 C.ar        1 UNL1     0.1347
     28 C         5.395963   9.198532   -1.26408 C.ar        1 UNL1     0.0342
     29 C         4.69256   8.064804   -0.80468 C.ar        1 UNL1     0.1435
     30 C         4.911069   6.78263   -1.310154 C.ar        1 UNL1     0.0774
     31 O         3.650748   8.179404   0.047671 O.3        1 UNL1     -0.4436
     32 C         2.927788   6.947459   -0.095563 C.3        1 UNL1     0.3143
     33 C         3.940518   5.953284   -0.626795 C.2        1 UNL1     0.2504
     34 C         4.950229   10.565063   -0.823608 C.3        1 UNL1     -0.0327
     35 O         2.565173   6.5109   1.22018 O.2        1 UNL1     -0.4528
     36 C         -0.679686   4.582593   0.819417 C.3        1 UNL1     0.0854
     37 C         -0.985466   3.322557   -0.078543 C.3        1 UNL1     0.0236
     38 C         -1.588373   2.06205   0.708457 C.3        1 UNL1     0.1131
     39 C         -0.864686   1.529992   2.010556 C.3        1 UNL1     0.0200
     40 C         0.796288   1.382495   2.053542 C.3        1 UNL1     0.0661
     41 C         1.756058   0.612789   0.885635 C.3        1 UNL1     0.0091
     42 C         3.464694   0.973466   0.323607 C.3        1 UNL1     0.0661
     43 C         7.510607   7.451677   -3.882669 C.2        1 UNL1     0.2131
     44 O         7.912339   8.349436   -4.600566 O.2        1 UNL1     -0.2851
     45 O         7.169766   9.962323   -2.680434 O.3        1 UNL1     -0.5056
     46 O         3.954953   4.749704   -0.496251 O.2        1 UNL1     -0.2836
     47 C         5.563198   1.311673   1.935969 C.3        1 UNL1     -0.0566
     48 O         3.911515   -0.43818   0.405598 O.3        1 UNL1     -0.3909
     49 C         0.922977   0.381431   -0.355309 C.3        1 UNL1     -0.0577
     50 O         1.397475   2.599574   2.447265 O.3        1 UNL1     -0.3910
     51 O         -0.805541   4.392779   2.210661 O.3        1 UNL1     -0.3753
     52 C         0.060079   3.161098   -1.22994 C.3        1 UNL1     -0.0564
     53 O         -2.191193   1.023956   -0.192263 O.3        1 UNL1     -0.4608
     54 C         -2.415406   -0.285841   0.142534 C.2        1 UNL1     0.3042
     55 O         -1.843903   -1.279407   -0.304735 O.2        1 UNL1     -0.2512
     56 C         -3.446187   -0.462964   1.220881 C.3        1 UNL1     0.0332
     57 C         -1.586328   2.199574   3.271138 C.3        1 UNL1     -0.0567
     58 C         1.854084   7.194029   -1.18087 C.3        1 UNL1     0.0210
     59 C         -1.156807   5.56397   2.946045 C.3        1 UNL1     0.0372
     60 C         0.650301   5.210165   0.590401 C.2        1 UNL1     -0.0208
     61 C         1.562782   5.644153   1.460905 C.2        1 UNL1     0.0882
     62 H         4.694075   2.726623   0.584356 H        1 UNL1     0.0365
     63 H         6.34239   3.600616   -0.245958 H        1 UNL1     0.0576
     64 H         8.346791   1.479645   -1.236228 H        1 UNL1     0.0615
     65 H         8.283372   4.597147   -1.42336 H        1 UNL1     0.0622
     66 H         -1.423117   5.330056   0.508521 H        1 UNL1     0.0645
     67 H         -1.849974   3.633059   -0.69073 H        1 UNL1     0.0362
     68 H         -2.535318   2.499966   1.059235 H        1 UNL1     0.0741
     69 H         -1.19761   0.519245   2.205389 H        1 UNL1     0.0359
     70 H         0.906315   0.721859   2.934742 H        1 UNL1     0.0600
     71 H         1.797971   -0.408511   1.312421 H        1 UNL1     0.0348
     72 H         3.358304   1.461602   1.303261 H        1 UNL1     0.0602
     73 H         0.769572   5.407481   -0.445982 H        1 UNL1     0.0628
     74 H         1.543808   5.433298   2.53068 H        1 UNL1     0.1022
     75 H         10.962633   2.240973   -3.418876 H        1 UNL1     0.0279
     76 H         10.807273   3.429468   -4.650396 H        1 UNL1     0.0279
     77 H         11.924689   3.649794   -3.243934 H        1 UNL1     0.0279
     78 H         9.077825   4.794511   -5.009812 H        1 UNL1     0.1553
     79 H         7.7971   3.324172   -4.657576 H        1 UNL1     0.1484
     80 H         4.04731   2.72557   -4.799845 H        1 UNL1     0.0317
     81 H         4.784288   4.252484   -5.263873 H        1 UNL1     0.0317
     82 H         6.696284   3.060941   -6.367595 H        1 UNL1     0.0428
     83 H         5.140621   2.586735   -7.013152 H        1 UNL1     0.0428
     84 H         6.913357   -0.052526   -4.185637 H        1 UNL1     0.0428
     85 H         7.825241   1.35747   -4.597346 H        1 UNL1     0.0428
     86 H         6.530538   1.430667   -2.465858 H        1 UNL1     0.0317
     87 H         5.035267   1.205302   -3.250542 H        1 UNL1     0.0317
     88 H         7.272707   0.874705   -7.37245 H        1 UNL1     0.0429
     89 H         6.911542   -0.612633   -6.492893 H        1 UNL1     0.0429
     90 H         4.369344   0.180616   -7.29161 H        1 UNL1     0.0308
     91 H         6.288061   1.049575   -9.531945 H        1 UNL1     0.0233
     92 H         4.519066   0.894006   -9.680103 H        1 UNL1     0.0233
     93 H         5.212885   2.12269   -8.643979 H        1 UNL1     0.0233
     94 H         4.670775   -1.481623   -9.162885 H        1 UNL1     0.0233
     95 H         6.372772   -1.589497   -8.687599 H        1 UNL1     0.0233
     96 H         5.098274   -2.06   -7.539438 H        1 UNL1     0.0233
     97 H         4.156018   10.516074   -0.08465 H        1 UNL1     0.0280
     98 H         5.763132   11.134063   -0.353838 H        1 UNL1     0.0280
     99 H         4.578171   11.1302   -1.693832 H        1 UNL1     0.0280
     100 H         6.703967   10.71328   -3.004034 H        1 UNL1     0.2922
     101 H         4.699723   0.877526   2.439541 H        1 UNL1     0.0236
     102 H         6.012895   2.116793   2.516088 H        1 UNL1     0.0236
     103 H         6.319648   0.509192   1.935557 H        1 UNL1     0.0236
     104 H         4.329939   -0.564826   1.279585 H        1 UNL1     0.2098
     105 H         0.712647   1.280509   -0.929096 H        1 UNL1     0.0234
     106 H         1.291744   -0.407409   -1.010801 H        1 UNL1     0.0234
     107 H         0.0   -0.0   0.0 H        1 UNL1     0.0234
     108 H         1.198067   3.258923   1.754977 H        1 UNL1     0.2098
     109 H         1.084362   3.046351   -0.84864 H        1 UNL1     0.0234
     110 H         -0.172584   2.334399   -1.909777 H        1 UNL1     0.0234
     111 H         0.083023   4.044009   -1.882542 H        1 UNL1     0.0234
     112 H         -3.57416   -1.526903   1.442246 H        1 UNL1     0.0342
     113 H         -3.197016   0.09627   2.121445 H        1 UNL1     0.0342
     114 H         -4.404878   -0.079399   0.845444 H        1 UNL1     0.0342
     115 H         -2.65086   1.932384   3.321833 H        1 UNL1     0.0234
     116 H         -1.136146   1.938323   4.230895 H        1 UNL1     0.0234
     117 H         -1.645442   3.29995   3.210975 H        1 UNL1     0.0234
     118 H         0.953128   7.681913   -0.769464 H        1 UNL1     0.0309
     119 H         2.225071   7.781737   -2.026547 H        1 UNL1     0.0309
     120 H         1.46489   6.262605   -1.606408 H        1 UNL1     0.0309
     121 H         -0.357346   6.291562   2.808824 H        1 UNL1     0.0524
     122 H         -2.090177   6.023389   2.580269 H        1 UNL1     0.0524
     123 H         -1.270325   5.326099   3.999907 H        1 UNL1     0.0524
@<TRIPOS>BOND
     1     1     2    1
     2     1    42    1
     3     2     3    2
     4     3     4    1
     5     4     5    2
     6     5     7    1
     7     6    75    1
     8     6    76    1
     9     6    77    1
    10     7     9   am
    11     9    10    1
    12    10    11    2
    13    10    43    1
    14    11    14    1
    15    11    15    1
    16    12    13   ar
    17    12    27   ar
    18    12    43    1
    19    13    14    1
    20    13    30   ar
    21    14    17    2
    22    15    16    1
    23    16    17    1
    24    16    18    1
    25    16    22    1
    26    18    19    1
    27    19    20    1
    28    20    21    1
    29    21    22    1
    30    23    24    1
    31    23    88    1
    32    23    89    1
    33    24    25    1
    34    24    26    1
    35    24    90    1
    36    25    91    1
    37    25    92    1
    38    25    93    1
    39    26    94    1
    40    26    95    1
    41    26    96    1
    42    27    28   ar
    43    28    29   ar
    44    29    30   ar
    45    29    31    1
    46    30    33    1
    47    31    32    1
    48    32    33    1
    49    32    35    1
    50    34    97    1
    51    34    98    1
    52    34    99    1
    53    35    61    1
    54    36    37    1
    55    36    60    1
    56    37    38    1
    57    38    39    1
    58    39    40    1
    59    40    41    1
    60    41    42    1
    61    45   100    1
    62    47   101    1
    63    47   102    1
    64    47   103    1
    65    48   104    1
    66    49   105    1
    67    49   106    1
    68    49   107    1
    69    50   108    1
    70    51    59    1
    71    52   109    1
    72    52   110    1
    73    52   111    1
    74    53    54    1
    75    54    55    2
    76    54    56    1
    77    56   112    1
    78    56   113    1
    79    56   114    1
    80    57   115    1
    81    57   116    1
    82    57   117    1
    83    58   118    1
    84    58   119    1
    85    58   120    1
    86    59   121    1
    87    59   122    1
    88    59   123    1
    89    60    61    2
    90     1    47    1
    91     1    62    1
    92     2    63    1
    93     3    64    1
    94     4    65    1
    95     5     6    1
    96     7     8    2
    97     9    78    1
    98    15    79    1
    99    18    80    1
   100    18    81    1
   101    19    82    1
   102    19    83    1
   103    20    23    1
   104    21    84    1
   105    21    85    1
   106    22    86    1
   107    22    87    1
   108    27    45    1
   109    28    34    1
   110    32    58    1
   111    33    46    2
   112    36    51    1
   113    36    66    1
   114    37    52    1
   115    37    67    1
   116    38    53    1
   117    38    68    1
   118    42    48    1
   119    42    72    1
   120    43    44    2
   121    60    73    1
   122    61    74    1
   123    39    69    1
   124    39    57    1
   125    40    70    1
   126    40    50    1
   127    41    71    1
   128    41    49    1
