@<TRIPOS>MOLECULE
*****
 123 128 0 0 0
SMALL
GASTEIGER

@<TRIPOS>ATOM
     1 C         1.025344   1.685304   -4.563008 C.3        1 UNL1     0.0009
     2 C         2.49803   1.651635   -5.688663 C.2        1 UNL1     -0.0787
     3 C         3.539801   2.346548   -6.415199 C.2        1 UNL1     -0.0649
     4 C         4.82369   1.674504   -7.29061 C.2        1 UNL1     -0.0542
     5 C         6.107504   1.916238   -7.838756 C.2        1 UNL1     0.0115
     6 C         7.153085   3.022255   -8.149893 C.3        1 UNL1     -0.0348
     7 C         7.03145   0.664589   -8.234595 C.2        1 UNL1     0.2441
     8 O         7.176682   0.283066   -9.387796 O.2        1 UNL1     -0.2702
     9 N         7.866229   0.199375   -7.203638 N.am        1 UNL1     -0.2772
     10 C         7.208646   -0.736451   -6.438696 C.2        1 UNL1     0.1049
     11 C         6.415898   -0.263258   -5.494311 C.2        1 UNL1     0.0801
     12 C         5.834859   -2.82058   -6.601331 C.ar        1 UNL1     0.0753
     13 C         4.896817   -2.176276   -5.733253 C.ar        1 UNL1     0.0305
     14 C         5.221723   -0.927704   -5.047283 C.2        1 UNL1     0.0924
     15 N         6.298025   0.985297   -5.01084 N.pl3        1 UNL1     -0.3170
     16 C         5.417776   0.934922   -3.873793 C.3        1 UNL1     0.1275
     17 N         4.522351   -0.25013   -4.141358 N.2        1 UNL1     -0.2557
     18 C         6.265504   0.560082   -2.661953 C.3        1 UNL1     0.0016
     19 C         7.400483   1.563501   -2.533265 C.3        1 UNL1     0.0026
     20 N         6.832078   2.895946   -2.383152 N.3        1 UNL1     -0.3018
     21 C         5.950722   3.322201   -3.472136 C.3        1 UNL1     0.0026
     22 C         4.815488   2.302701   -3.580573 C.3        1 UNL1     0.0016
     23 C         7.806741   3.880013   -1.956202 C.3        1 UNL1     0.0012
     24 C         7.105624   5.166611   -1.492674 C.3        1 UNL1     -0.0339
     25 C         5.840857   4.85483   -0.675841 C.3        1 UNL1     -0.0615
     26 C         8.075594   6.035723   -0.711277 C.3        1 UNL1     -0.0615
     27 C         5.565124   -4.069536   -7.15583 C.ar        1 UNL1     0.1347
     28 C         4.413392   -4.786595   -6.884918 C.ar        1 UNL1     0.0342
     29 C         3.482902   -4.111276   -6.066812 C.ar        1 UNL1     0.1435
     30 C         3.72379   -2.844535   -5.533371 C.ar        1 UNL1     0.0774
     31 O         2.361944   -4.72081   -5.623047 O.3        1 UNL1     -0.4436
     32 C         1.946119   -3.937819   -4.493938 C.3        1 UNL1     0.3143
     33 C         2.564222   -2.571303   -4.71026 C.2        1 UNL1     0.2504
     34 C         4.168302   -6.227313   -7.237566 C.3        1 UNL1     -0.0327
     35 O         0.525905   -3.773184   -4.589548 O.2        1 UNL1     -0.4528
     36 C         -0.731046   -3.485576   -1.019472 C.3        1 UNL1     0.0854
     37 C         -0.320485   -2.45468   0.101338 C.3        1 UNL1     0.0236
     38 C         -1.539631   -1.636786   0.74669 C.3        1 UNL1     0.1131
     39 C         -2.575947   -0.899746   -0.194103 C.3        1 UNL1     0.0200
     40 C         -2.046972   -0.026255   -1.513056 C.3        1 UNL1     0.0661
     41 C         -0.821353   1.146492   -1.50151 C.3        1 UNL1     0.0091
     42 C         0.388233   1.616464   -2.79821 C.3        1 UNL1     0.0661
     43 C         7.143028   -2.155025   -6.820398 C.2        1 UNL1     0.2131
     44 O         8.143459   -2.742432   -7.1903 O.2        1 UNL1     -0.2851
     45 O         6.510965   -4.606611   -8.026676 O.3        1 UNL1     -0.5056
     46 O         2.174763   -1.496458   -4.311656 O.2        1 UNL1     -0.2836
     47 C         -0.230153   2.177397   -5.332134 C.3        1 UNL1     -0.0566
     48 O         0.151423   3.073034   -2.651777 O.3        1 UNL1     -0.3909
     49 C         -0.05546   1.039154   -0.201749 C.3        1 UNL1     -0.0577
     50 O         -1.904937   -0.862454   -2.643684 O.3        1 UNL1     -0.3910
     51 O         -2.076945   -3.438815   -1.436364 O.3        1 UNL1     -0.3753
     52 C         1.061167   -1.787374   -0.199809 C.3        1 UNL1     -0.0564
     53 O         -1.183148   -0.936944   2.025544 O.3        1 UNL1     -0.4608
     54 C         -1.517956   0.352619   2.346266 C.2        1 UNL1     0.3042
     55 O         -1.933108   0.769778   3.426759 O.2        1 UNL1     -0.2512
     56 C         -1.278326   1.331077   1.231855 C.3        1 UNL1     0.0332
     57 C         -3.822034   -1.880875   -0.40105 C.3        1 UNL1     -0.0567
     58 C         2.594164   -4.587054   -3.248924 C.3        1 UNL1     0.0210
     59 C         -2.265542   -3.162191   -2.823366 C.3        1 UNL1     0.0372
     60 C         0.101945   -3.439355   -2.25201 C.2        1 UNL1     -0.0208
     61 C         -0.253984   -3.459707   -3.537173 C.2        1 UNL1     0.0882
     62 H         1.001229   0.589303   -4.593232 H        1 UNL1     0.0365
     63 H         2.549336   0.586747   -5.924993 H        1 UNL1     0.0576
     64 H         3.682206   3.425315   -6.319854 H        1 UNL1     0.0615
     65 H         4.545156   0.622404   -7.395431 H        1 UNL1     0.0622
     66 H         -0.547663   -4.471052   -0.568635 H        1 UNL1     0.0645
     67 H         -0.009303   -3.089874   0.948837 H        1 UNL1     0.0362
     68 H         -2.098822   -2.468585   1.201594 H        1 UNL1     0.0741
     69 H         -3.10497   -0.155698   0.386358 H        1 UNL1     0.0359
     70 H         -2.954985   0.570837   -1.722946 H        1 UNL1     0.0600
     71 H         -1.426525   2.056768   -1.32228 H        1 UNL1     0.0348
     72 H         -0.422941   1.08627   -3.318025 H        1 UNL1     0.0602
     73 H         1.126651   -3.512686   -1.983966 H        1 UNL1     0.0628
     74 H         -1.275631   -3.330964   -3.896201 H        1 UNL1     0.1022
     75 H         7.311026   3.674626   -7.257424 H        1 UNL1     0.0279
     76 H         8.162492   2.685875   -8.375761 H        1 UNL1     0.0279
     77 H         6.793214   3.751441   -8.890489 H        1 UNL1     0.0279
     78 H         8.11785   0.97302   -6.591887 H        1 UNL1     0.1553
     79 H         6.997603   1.695441   -5.125811 H        1 UNL1     0.1484
     80 H         5.630021   0.557377   -1.76813 H        1 UNL1     0.0317
     81 H         6.667271   -0.453736   -2.763965 H        1 UNL1     0.0317
     82 H         8.082872   1.519028   -3.394822 H        1 UNL1     0.0428
     83 H         7.993361   1.276518   -1.66425 H        1 UNL1     0.0428
     84 H         5.474666   4.292013   -3.297071 H        1 UNL1     0.0428
     85 H         6.501134   3.461123   -4.412915 H        1 UNL1     0.0428
     86 H         4.123646   2.714297   -4.291862 H        1 UNL1     0.0317
     87 H         4.238905   2.283293   -2.64769 H        1 UNL1     0.0317
     88 H         8.365634   3.461831   -1.108819 H        1 UNL1     0.0429
     89 H         8.53535   4.089988   -2.74981 H        1 UNL1     0.0429
     90 H         6.817328   5.755222   -2.371671 H        1 UNL1     0.0308
     91 H         5.023658   4.518433   -1.320919 H        1 UNL1     0.0233
     92 H         6.044928   4.087156   0.074252 H        1 UNL1     0.0233
     93 H         5.472692   5.72943   -0.125963 H        1 UNL1     0.0233
     94 H         8.127625   5.70112   0.330438 H        1 UNL1     0.0233
     95 H         9.077993   5.956529   -1.14126 H        1 UNL1     0.0233
     96 H         7.768737   7.085337   -0.722176 H        1 UNL1     0.0233
     97 H         3.839083   -6.806398   -6.37995 H        1 UNL1     0.0280
     98 H         3.382367   -6.339847   -7.995786 H        1 UNL1     0.0280
     99 H         5.098777   -6.676743   -7.621396 H        1 UNL1     0.0280
     100 H         6.944946   -3.974097   -8.571846 H        1 UNL1     0.2922
     101 H         -0.879284   1.331143   -5.55605 H        1 UNL1     0.0236
     102 H         0.012297   2.75412   -6.224093 H        1 UNL1     0.0236
     103 H         -0.851787   2.852942   -4.721067 H        1 UNL1     0.0236
     104 H         0.539422   3.350669   -1.798931 H        1 UNL1     0.2098
     105 H         0.960225   1.424188   -0.245855 H        1 UNL1     0.0234
     106 H         -0.574881   1.44231   0.6675 H        1 UNL1     0.0234
     107 H         0.0   0.0   0.0 H        1 UNL1     0.0234
     108 H         -0.967077   -0.828153   -2.913889 H        1 UNL1     0.2098
     109 H         1.823724   -2.523075   -0.491295 H        1 UNL1     0.0234
     110 H         1.002507   -1.00004   -0.959023 H        1 UNL1     0.0234
     111 H         1.464569   -1.275415   0.683995 H        1 UNL1     0.0234
     112 H         -1.554326   2.339124   1.555907 H        1 UNL1     0.0342
     113 H         -0.249409   1.302961   0.876352 H        1 UNL1     0.0342
     114 H         -1.929047   1.058058   0.389723 H        1 UNL1     0.0342
     115 H         -3.683839   -2.538872   -1.270033 H        1 UNL1     0.0234
     116 H         -4.035007   -2.515957   0.461135 H        1 UNL1     0.0234
     117 H         -4.753475   -1.356945   -0.676469 H        1 UNL1     0.0234
     118 H         3.158692   -5.500885   -3.504322 H        1 UNL1     0.0309
     119 H         3.249078   -3.903288   -2.699603 H        1 UNL1     0.0309
     120 H         1.85195   -4.942514   -2.525825 H        1 UNL1     0.0309
     121 H         -3.242986   -3.551279   -3.107219 H        1 UNL1     0.0524
     122 H         -2.26359   -2.080602   -3.038302 H        1 UNL1     0.0524
     123 H         -1.486827   -3.639882   -3.411165 H        1 UNL1     0.0524
@<TRIPOS>BOND
     1     1     2    1
     2     1    42    1
     3     2     3    2
     4     3     4    1
     5     4     5    2
     6     5     7    1
     7     6    75    1
     8     6    76    1
     9     6    77    1
    10     7     9   am
    11     9    10    1
    12    10    11    2
    13    10    43    1
    14    11    14    1
    15    11    15    1
    16    12    13   ar
    17    12    27   ar
    18    12    43    1
    19    13    14    1
    20    13    30   ar
    21    14    17    2
    22    15    16    1
    23    16    17    1
    24    16    18    1
    25    16    22    1
    26    18    19    1
    27    19    20    1
    28    20    21    1
    29    21    22    1
    30    23    24    1
    31    23    88    1
    32    23    89    1
    33    24    25    1
    34    24    26    1
    35    24    90    1
    36    25    91    1
    37    25    92    1
    38    25    93    1
    39    26    94    1
    40    26    95    1
    41    26    96    1
    42    27    28   ar
    43    28    29   ar
    44    29    30   ar
    45    29    31    1
    46    30    33    1
    47    31    32    1
    48    32    33    1
    49    32    35    1
    50    34    97    1
    51    34    98    1
    52    34    99    1
    53    35    61    1
    54    36    37    1
    55    36    60    1
    56    37    38    1
    57    38    39    1
    58    39    40    1
    59    40    41    1
    60    41    42    1
    61    45   100    1
    62    47   101    1
    63    47   102    1
    64    47   103    1
    65    48   104    1
    66    49   105    1
    67    49   106    1
    68    49   107    1
    69    50   108    1
    70    51    59    1
    71    52   109    1
    72    52   110    1
    73    52   111    1
    74    53    54    1
    75    54    55    2
    76    54    56    1
    77    56   112    1
    78    56   113    1
    79    56   114    1
    80    57   115    1
    81    57   116    1
    82    57   117    1
    83    58   118    1
    84    58   119    1
    85    58   120    1
    86    59   121    1
    87    59   122    1
    88    59   123    1
    89    60    61    2
    90     1    47    1
    91     1    62    1
    92     2    63    1
    93     3    64    1
    94     4    65    1
    95     5     6    1
    96     7     8    2
    97     9    78    1
    98    15    79    1
    99    18    80    1
   100    18    81    1
   101    19    82    1
   102    19    83    1
   103    20    23    1
   104    21    84    1
   105    21    85    1
   106    22    86    1
   107    22    87    1
   108    27    45    1
   109    28    34    1
   110    32    58    1
   111    33    46    2
   112    36    51    1
   113    36    66    1
   114    37    52    1
   115    37    67    1
   116    38    53    1
   117    38    68    1
   118    42    48    1
   119    42    72    1
   120    43    44    2
   121    60    73    1
   122    61    74    1
   123    39    69    1
   124    39    57    1
   125    40    70    1
   126    40    50    1
   127    41    71    1
   128    41    49    1
