@<TRIPOS>MOLECULE
*****
 123 128 0 0 0
SMALL
GASTEIGER

@<TRIPOS>ATOM
     1 C         4.749062   2.620684   -0.760065 C.3        1 UNL1     0.0009
     2 C         6.208886   2.862539   -1.87696 C.2        1 UNL1     -0.0787
     3 C         7.591996   2.596176   -2.211779 C.2        1 UNL1     -0.0649
     4 C         8.43762   3.074233   -3.598408 C.2        1 UNL1     -0.0542
     5 C         9.567576   2.820422   -4.414408 C.2        1 UNL1     0.0115
     6 C         10.899335   2.0257   -4.504732 C.3        1 UNL1     -0.0348
     7 C         9.593147   3.404546   -5.909445 C.2        1 UNL1     0.2441
     8 O         10.231921   4.399178   -6.224406 O.2        1 UNL1     -0.2702
     9 N         9.046435   2.551972   -6.884317 N.am        1 UNL1     -0.2772
     10 C         7.691451   2.761543   -7.000163 C.2        1 UNL1     0.1049
     11 C         6.928719   2.137624   -6.120852 C.2        1 UNL1     0.0801
     12 C         5.978676   4.565534   -7.263509 C.ar        1 UNL1     0.0753
     13 C         5.291293   3.965625   -6.160685 C.ar        1 UNL1     0.0305
     14 C         5.67696   2.656136   -5.639581 C.2        1 UNL1     0.0924
     15 N         7.235272   1.159292   -5.251704 N.pl3        1 UNL1     -0.3170
     16 C         6.01013   0.710679   -4.645053 C.3        1 UNL1     0.1275
     17 N         5.098786   1.912377   -4.700718 N.2        1 UNL1     -0.2557
     18 C         5.397534   -0.328992   -5.578602 C.3        1 UNL1     0.0016
     19 C         6.419027   -1.429299   -5.81832 C.3        1 UNL1     0.0026
     20 N         6.777493   -2.021975   -4.537202 N.3        1 UNL1     -0.3018
     21 C         7.319143   -1.08659   -3.549255 C.3        1 UNL1     0.0026
     22 C         6.274951   0.007544   -3.320282 C.3        1 UNL1     0.0016
     23 C         7.508638   -3.265675   -4.676064 C.3        1 UNL1     0.0012
     24 C         6.586662   -4.376525   -5.203065 C.3        1 UNL1     -0.0339
     25 C         6.790214   -4.608909   -6.709259 C.3        1 UNL1     -0.0615
     26 C         6.800294   -5.65208   -4.40676 C.3        1 UNL1     -0.0615
     27 C         5.530888   5.755719   -7.831897 C.ar        1 UNL1     0.1347
     28 C         4.38969   6.414764   -7.410735 C.ar        1 UNL1     0.0342
     29 C         3.756899   5.831897   -6.292252 C.ar        1 UNL1     0.1435
     30 C         4.214684   4.659526   -5.68959 C.ar        1 UNL1     0.0774
     31 O         2.573418   6.29322   -5.832297 O.3        1 UNL1     -0.4436
     32 C         2.041045   5.211901   -5.052424 C.3        1 UNL1     0.3143
     33 C         3.244412   4.38312   -4.650871 C.2        1 UNL1     0.2504
     34 C         3.711497   7.549154   -8.127195 C.3        1 UNL1     -0.0327
     35 O         1.504216   5.777644   -3.850342 O.2        1 UNL1     -0.4528
     36 C         -1.361174   3.510277   -2.822393 C.3        1 UNL1     0.0854
     37 C         -1.347881   1.962229   -2.520907 C.3        1 UNL1     0.0236
     38 C         -1.925857   1.548665   -1.083321 C.3        1 UNL1     0.1131
     39 C         -1.387964   2.271651   0.216767 C.3        1 UNL1     0.0200
     40 C         0.24407   2.556481   0.411127 C.3        1 UNL1     0.0661
     41 C         1.482549   1.414242   0.213468 C.3        1 UNL1     0.0091
     42 C         3.208209   1.619684   -0.374148 C.3        1 UNL1     0.0661
     43 C         7.132642   3.831668   -7.839757 C.2        1 UNL1     0.2131
     44 O         7.545398   4.008441   -8.971624 O.2        1 UNL1     -0.2851
     45 O         6.283256   6.296861   -8.872351 O.3        1 UNL1     -0.5056
     46 O         3.379786   3.67224   -3.680213 O.2        1 UNL1     -0.2836
     47 C         4.928637   3.438898   0.546939 C.3        1 UNL1     -0.0566
     48 O         3.7995   0.826744   0.730722 O.3        1 UNL1     -0.3909
     49 C         0.918623   0.199756   -0.489744 C.3        1 UNL1     -0.0577
     50 O         0.614541   3.780039   -0.191683 O.3        1 UNL1     -0.3910
     51 O         -1.709941   4.345432   -1.74151 O.3        1 UNL1     -0.3753
     52 C         -0.101672   1.257675   -3.149806 C.3        1 UNL1     -0.0564
     53 O         -2.228808   0.08427   -0.956454 O.3        1 UNL1     -0.4608
     54 C         -2.329708   -0.607622   0.222119 C.2        1 UNL1     0.3042
     55 O         -1.561366   -1.46727   0.651647 O.2        1 UNL1     -0.2512
     56 C         -3.498229   -0.187891   1.067753 C.3        1 UNL1     0.0332
     57 C         -2.398438   3.463295   0.558966 C.3        1 UNL1     -0.0567
     58 C         1.1569   4.377269   -6.008043 C.3        1 UNL1     0.0210
     59 C         -2.289187   5.595506   -2.11253 C.3        1 UNL1     0.0372
     60 C         -0.096867   4.050881   -3.391987 C.2        1 UNL1     -0.0208
     61 C         0.586462   5.154695   -3.086373 C.2        1 UNL1     0.0882
     62 H         4.151489   3.241593   -1.438364 H        1 UNL1     0.0365
     63 H         5.804523   3.587542   -2.586419 H        1 UNL1     0.0576
     64 H         8.193723   1.887937   -1.63782 H        1 UNL1     0.0615
     65 H         7.790669   3.83108   -4.050205 H        1 UNL1     0.0622
     66 H         -2.121397   3.632204   -3.606766 H        1 UNL1     0.0645
     67 H         -2.119986   1.551307   -3.194373 H        1 UNL1     0.0362
     68 H         -2.965894   1.89027   -1.197997 H        1 UNL1     0.0741
     69 H         -1.626457   1.661884   1.077995 H        1 UNL1     0.0359
     70 H         0.273385   2.763562   1.498012 H        1 UNL1     0.0600
     71 H         1.569904   1.042007   1.253068 H        1 UNL1     0.0348
     72 H         2.870562   2.620776   -0.068986 H        1 UNL1     0.0602
     73 H         0.18114   3.471653   -4.237242 H        1 UNL1     0.0628
     74 H         0.402056   5.769912   -2.205044 H        1 UNL1     0.1022
     75 H         11.032982   1.380862   -3.602869 H        1 UNL1     0.0279
     76 H         10.982666   1.309588   -5.31917 H        1 UNL1     0.0279
     77 H         11.786116   2.673258   -4.441577 H        1 UNL1     0.0279
     78 H         9.183809   1.582388   -6.606628 H        1 UNL1     0.1553
     79 H         8.046843   0.574955   -5.33438 H        1 UNL1     0.1484
     80 H         4.482403   -0.724675   -5.121725 H        1 UNL1     0.0317
     81 H         5.101566   0.125594   -6.53013 H        1 UNL1     0.0317
     82 H         7.309137   -1.051319   -6.342485 H        1 UNL1     0.0428
     83 H         5.962345   -2.158905   -6.487773 H        1 UNL1     0.0428
     84 H         7.505198   -1.540809   -2.571053 H        1 UNL1     0.0428
     85 H         8.299859   -0.694527   -3.852242 H        1 UNL1     0.0428
     86 H         6.645762   0.594717   -2.500699 H        1 UNL1     0.0317
     87 H         5.352914   -0.432146   -2.920759 H        1 UNL1     0.0317
     88 H         8.316282   -3.107751   -5.402746 H        1 UNL1     0.0429
     89 H         7.980546   -3.558651   -3.729364 H        1 UNL1     0.0429
     90 H         5.542725   -4.088059   -5.032202 H        1 UNL1     0.0308
     91 H         7.831161   -4.858007   -6.936158 H        1 UNL1     0.0233
     92 H         6.142859   -5.41299   -7.067022 H        1 UNL1     0.0233
     93 H         6.537409   -3.724288   -7.306226 H        1 UNL1     0.0233
     94 H         6.309149   -6.495009   -4.904839 H        1 UNL1     0.0233
     95 H         7.868589   -5.876136   -4.33962 H        1 UNL1     0.0233
     96 H         6.393877   -5.563868   -3.395319 H        1 UNL1     0.0233
     97 H         2.80479   7.866767   -7.620999 H        1 UNL1     0.0280
     98 H         4.34954   8.44046   -8.188282 H        1 UNL1     0.0280
     99 H         3.444289   7.233199   -9.148893 H        1 UNL1     0.0280
     100 H         5.793522   6.48261   -9.654196 H        1 UNL1     0.2922
     101 H         4.041724   3.333612   1.171405 H        1 UNL1     0.0236
     102 H         5.180819   4.483495   0.367481 H        1 UNL1     0.0236
     103 H         5.754903   3.052856   1.166978 H        1 UNL1     0.0236
     104 H         4.061618   1.451659   1.434815 H        1 UNL1     0.2098
     105 H         0.707059   0.34997   -1.545437 H        1 UNL1     0.0234
     106 H         1.491094   -0.716481   -0.345826 H        1 UNL1     0.0234
     107 H         0.0   -0.0   0.0 H        1 UNL1     0.0234
     108 H         0.483758   3.680466   -1.154361 H        1 UNL1     0.2098
     109 H         0.84422   1.677951   -2.780528 H        1 UNL1     0.0234
     110 H         -0.101895   0.172075   -3.004145 H        1 UNL1     0.0234
     111 H         -0.075361   1.379867   -4.240826 H        1 UNL1     0.0234
     112 H         -3.508605   -0.761753   1.999375 H        1 UNL1     0.0342
     113 H         -3.495199   0.882462   1.268202 H        1 UNL1     0.0342
     114 H         -4.420679   -0.421038   0.518306 H        1 UNL1     0.0342
     115 H         -3.422648   3.097873   0.715967 H        1 UNL1     0.0234
     116 H         -2.118194   4.043728   1.440221 H        1 UNL1     0.0234
     117 H         -2.549043   4.166445   -0.278196 H        1 UNL1     0.0234
     118 H         0.143455   4.80265   -6.112856 H        1 UNL1     0.0309
     119 H         1.597616   4.252697   -7.002253 H        1 UNL1     0.0309
     120 H         0.968625   3.366102   -5.630949 H        1 UNL1     0.0309
     121 H         -1.533703   6.159826   -2.658555 H        1 UNL1     0.0524
     122 H         -3.158297   5.472215   -2.779976 H        1 UNL1     0.0524
     123 H         -2.59937   6.143497   -1.227326 H        1 UNL1     0.0524
@<TRIPOS>BOND
     1     1     2    1
     2     1    42    1
     3     2     3    2
     4     3     4    1
     5     4     5    2
     6     5     7    1
     7     6    75    1
     8     6    76    1
     9     6    77    1
    10     7     9   am
    11     9    10    1
    12    10    11    2
    13    10    43    1
    14    11    14    1
    15    11    15    1
    16    12    13   ar
    17    12    27   ar
    18    12    43    1
    19    13    14    1
    20    13    30   ar
    21    14    17    2
    22    15    16    1
    23    16    17    1
    24    16    18    1
    25    16    22    1
    26    18    19    1
    27    19    20    1
    28    20    21    1
    29    21    22    1
    30    23    24    1
    31    23    88    1
    32    23    89    1
    33    24    25    1
    34    24    26    1
    35    24    90    1
    36    25    91    1
    37    25    92    1
    38    25    93    1
    39    26    94    1
    40    26    95    1
    41    26    96    1
    42    27    28   ar
    43    28    29   ar
    44    29    30   ar
    45    29    31    1
    46    30    33    1
    47    31    32    1
    48    32    33    1
    49    32    35    1
    50    34    97    1
    51    34    98    1
    52    34    99    1
    53    35    61    1
    54    36    37    1
    55    36    60    1
    56    37    38    1
    57    38    39    1
    58    39    40    1
    59    40    41    1
    60    41    42    1
    61    45   100    1
    62    47   101    1
    63    47   102    1
    64    47   103    1
    65    48   104    1
    66    49   105    1
    67    49   106    1
    68    49   107    1
    69    50   108    1
    70    51    59    1
    71    52   109    1
    72    52   110    1
    73    52   111    1
    74    53    54    1
    75    54    55    2
    76    54    56    1
    77    56   112    1
    78    56   113    1
    79    56   114    1
    80    57   115    1
    81    57   116    1
    82    57   117    1
    83    58   118    1
    84    58   119    1
    85    58   120    1
    86    59   121    1
    87    59   122    1
    88    59   123    1
    89    60    61    2
    90     1    47    1
    91     1    62    1
    92     2    63    1
    93     3    64    1
    94     4    65    1
    95     5     6    1
    96     7     8    2
    97     9    78    1
    98    15    79    1
    99    18    80    1
   100    18    81    1
   101    19    82    1
   102    19    83    1
   103    20    23    1
   104    21    84    1
   105    21    85    1
   106    22    86    1
   107    22    87    1
   108    27    45    1
   109    28    34    1
   110    32    58    1
   111    33    46    2
   112    36    51    1
   113    36    66    1
   114    37    52    1
   115    37    67    1
   116    38    53    1
   117    38    68    1
   118    42    48    1
   119    42    72    1
   120    43    44    2
   121    60    73    1
   122    61    74    1
   123    39    69    1
   124    39    57    1
   125    40    70    1
   126    40    50    1
   127    41    71    1
   128    41    49    1
