@<TRIPOS>MOLECULE
*****
 123 128 0 0 0
SMALL
GASTEIGER

@<TRIPOS>ATOM
     1 C         -3.987087   1.668394   -2.149107 C.3        1 UNL1     0.0009
     2 C         -4.506972   1.849659   -3.91939 C.2        1 UNL1     -0.0787
     3 C         -4.871091   2.688241   -5.041996 C.2        1 UNL1     -0.0649
     4 C         -5.170982   2.215559   -6.639805 C.2        1 UNL1     -0.0542
     5 C         -5.244258   2.65237   -7.985503 C.2        1 UNL1     0.0115
     6 C         -5.255529   3.907932   -8.90025 C.3        1 UNL1     -0.0348
     7 C         -5.176748   1.561386   -9.161167 C.2        1 UNL1     0.2441
     8 O         -6.165538   1.178605   -9.77133 O.2        1 UNL1     -0.2702
     9 N         -3.880405   1.268945   -9.619561 N.am        1 UNL1     -0.2772
     10 C         -3.323148   0.257697   -8.871119 C.2        1 UNL1     0.1049
     11 C         -2.767156   0.617751   -7.728553 C.2        1 UNL1     0.0801
     12 C         -3.786286   -2.029195   -7.969476 C.ar        1 UNL1     0.0753
     13 C         -3.367643   -1.526631   -6.696379 C.ar        1 UNL1     0.0305
     14 C         -2.720011   -0.22357   -6.563506 C.2        1 UNL1     0.0924
     15 N         -2.465691   1.841866   -7.26252 N.pl3        1 UNL1     -0.3170
     16 C         -1.716981   1.676428   -6.045016 C.3        1 UNL1     0.1275
     17 N         -2.183958   0.352431   -5.49122 N.2        1 UNL1     -0.2557
     18 C         -0.255417   1.480056   -6.436131 C.3        1 UNL1     0.0016
     19 C         0.183159   2.661072   -7.287272 C.3        1 UNL1     0.0026
     20 N         0.006782   3.884172   -6.516592 N.3        1 UNL1     -0.3018
     21 C         -1.356828   4.128925   -6.042218 C.3        1 UNL1     0.0026
     22 C         -1.77528   2.932555   -5.185776 C.3        1 UNL1     0.0016
     23 C         0.667423   5.027461   -7.114159 C.3        1 UNL1     0.0012
     24 C         -0.093431   6.321646   -6.785613 C.3        1 UNL1     -0.0339
     25 C         -1.592584   6.187828   -7.099761 C.3        1 UNL1     -0.0615
     26 C         0.141489   6.710227   -5.336269 C.3        1 UNL1     -0.0615
     27 C         -4.291898   -3.319962   -8.105104 C.ar        1 UNL1     0.1347
     28 C         -4.389022   -4.210804   -7.051055 C.ar        1 UNL1     0.0342
     29 C         -4.01683   -3.677747   -5.798662 C.ar        1 UNL1     0.1435
     30 C         -3.542605   -2.374801   -5.641623 C.ar        1 UNL1     0.0774
     31 O         -3.951316   -4.452868   -4.694171 O.3        1 UNL1     -0.4436
     32 C         -3.11556   -3.71991   -3.785789 C.3        1 UNL1     0.3143
     33 C         -3.2131   -2.276006   -4.235056 C.2        1 UNL1     0.2504
     34 C         -4.681691   -5.681118   -7.163403 C.3        1 UNL1     -0.0327
     35 O         -3.724519   -3.795985   -2.490941 O.2        1 UNL1     -0.4528
     36 C         -0.874903   -3.625807   0.010822 C.3        1 UNL1     0.0854
     37 C         0.226411   -2.511484   0.192238 C.3        1 UNL1     0.0236
     38 C         0.32287   -1.890425   1.667611 C.3        1 UNL1     0.1131
     39 C         -0.984542   -1.361085   2.383672 C.3        1 UNL1     0.0200
     40 C         -2.097807   -0.447437   1.54205 C.3        1 UNL1     0.0661
     41 C         -1.750371   0.912416   0.589318 C.3        1 UNL1     0.0091
     42 C         -2.566067   1.541894   -0.92851 C.3        1 UNL1     0.0661
     43 C         -3.5808   -1.161764   -9.155899 C.2        1 UNL1     0.2131
     44 O         -3.518516   -1.584575   -10.296113 O.2        1 UNL1     -0.2851
     45 O         -4.719477   -3.715604   -9.370838 O.3        1 UNL1     -0.5056
     46 O         -3.072553   -1.270488   -3.575485 O.2        1 UNL1     -0.2836
     47 C         -5.191973   1.924471   -1.204303 C.3        1 UNL1     -0.0566
     48 O         -2.638312   2.942309   -0.446086 O.3        1 UNL1     -0.3909
     49 C         -0.258948   0.968496   0.344355 C.3        1 UNL1     -0.0577
     50 O         -3.027983   -1.278346   0.877154 O.3        1 UNL1     -0.3910
     51 O         -1.746293   -3.814322   1.102872 O.3        1 UNL1     -0.3753
     52 C         0.381553   -1.632319   -1.091487 C.3        1 UNL1     -0.0564
     53 O         1.580191   -1.107198   1.908495 O.3        1 UNL1     -0.4608
     54 C         2.402675   -1.238656   2.99669 C.2        1 UNL1     0.3042
     55 O         2.519625   -2.219421   3.730353 O.2        1 UNL1     -0.2512
     56 C         3.275307   -0.040163   3.239258 C.3        1 UNL1     0.0332
     57 C         -1.53742   -2.540667   3.311618 C.3        1 UNL1     -0.0567
     58 C         -1.670881   -4.219038   -4.020956 C.3        1 UNL1     0.0210
     59 C         -1.459743   -4.956873   1.908062 C.3        1 UNL1     0.0372
     60 C         -1.728949   -3.474861   -1.198716 C.2        1 UNL1     -0.0208
     61 C         -3.049852   -3.588353   -1.343901 C.2        1 UNL1     0.0882
     62 H         -3.930396   0.583193   -2.296875 H        1 UNL1     0.0365
     63 H         -4.617843   0.802143   -4.207295 H        1 UNL1     0.0576
     64 H         -4.823576   3.777835   -4.981705 H        1 UNL1     0.0615
     65 H         -5.278083   1.129396   -6.574519 H        1 UNL1     0.0622
     66 H         -0.306085   -4.554755   -0.135971 H        1 UNL1     0.0645
     67 H         1.179997   -3.063323   0.123631 H        1 UNL1     0.0362
     68 H         0.617827   -2.791073   2.227394 H        1 UNL1     0.0741
     69 H         -0.696308   -0.699966   3.190054 H        1 UNL1     0.0359
     70 H         -2.667483   -0.015223   2.386869 H        1 UNL1     0.0600
     71 H         -1.876774   1.714032   1.343236 H        1 UNL1     0.0348
     72 H         -3.293554   0.870678   -0.449398 H        1 UNL1     0.0602
     73 H         -1.108225   -3.369845   -2.053656 H        1 UNL1     0.0628
     74 H         -3.758868   -3.640668   -0.516981 H        1 UNL1     0.1022
     75 H         -5.094716   4.833862   -8.29707 H        1 UNL1     0.0279
     76 H         -4.465073   3.972997   -9.644572 H        1 UNL1     0.0279
     77 H         -6.244193   4.10474   -9.340149 H        1 UNL1     0.0279
     78 H         -3.287466   2.089691   -9.515272 H        1 UNL1     0.1553
     79 H         -2.383959   2.654983   -7.844839 H        1 UNL1     0.1484
     80 H         0.350113   1.395751   -5.525641 H        1 UNL1     0.0317
     81 H         -0.120803   0.544661   -6.989816 H        1 UNL1     0.0317
     82 H         -0.371616   2.70752   -8.235945 H        1 UNL1     0.0428
     83 H         1.227447   2.499832   -7.556557 H        1 UNL1     0.0428
     84 H         -1.446182   5.010556   -5.399914 H        1 UNL1     0.0428
     85 H         -2.047965   4.332127   -6.87189 H        1 UNL1     0.0428
     86 H         -2.718682   3.204415   -4.749802 H        1 UNL1     0.0317
     87 H         -1.110999   2.842609   -4.317597 H        1 UNL1     0.0317
     88 H         1.677475   5.098548   -6.689852 H        1 UNL1     0.0429
     89 H         0.782253   4.899974   -8.198288 H        1 UNL1     0.0429
     90 H         0.317277   7.142042   -7.386015 H        1 UNL1     0.0308
     91 H         -1.883668   5.138967   -7.210504 H        1 UNL1     0.0233
     92 H         -2.194808   6.645857   -6.311633 H        1 UNL1     0.0233
     93 H         -1.870996   6.695301   -8.031315 H        1 UNL1     0.0233
     94 H         -0.245568   7.717448   -5.147775 H        1 UNL1     0.0233
     95 H         -0.384735   6.017392   -4.673677 H        1 UNL1     0.0233
     96 H         1.206251   6.696959   -5.087125 H        1 UNL1     0.0233
     97 H         -4.480846   -6.061519   -8.160492 H        1 UNL1     0.0280
     98 H         -4.061977   -6.279601   -6.482941 H        1 UNL1     0.0280
     99 H         -5.743396   -5.864896   -6.930802 H        1 UNL1     0.0280
     100 H         -4.993176   -3.009861   -9.929978 H        1 UNL1     0.2922
     101 H         -5.876655   2.635548   -1.666079 H        1 UNL1     0.0236
     102 H         -4.893529   2.234926   -0.203538 H        1 UNL1     0.0236
     103 H         -5.796212   1.015266   -1.047984 H        1 UNL1     0.0236
     104 H         -2.593836   2.920729   0.529889 H        1 UNL1     0.2098
     105 H         0.04476   1.684059   -0.415608 H        1 UNL1     0.0234
     106 H         0.345746   1.092002   1.242696 H        1 UNL1     0.0234
     107 H         0.0   0.0   0.0 H        1 UNL1     0.0234
     108 H         -3.249558   -0.845883   0.030013 H        1 UNL1     0.2098
     109 H         -0.037339   -0.625011   -0.958928 H        1 UNL1     0.0234
     110 H         1.417813   -1.55555   -1.437918 H        1 UNL1     0.0234
     111 H         -0.153496   -2.066577   -1.946524 H        1 UNL1     0.0234
     112 H         3.559708   0.005583   4.294895 H        1 UNL1     0.0342
     113 H         4.15484   -0.037272   2.597185 H        1 UNL1     0.0342
     114 H         2.691639   0.861597   3.008339 H        1 UNL1     0.0342
     115 H         -0.725232   -3.062045   3.836695 H        1 UNL1     0.0234
     116 H         -2.257751   -2.213193   4.063903 H        1 UNL1     0.0234
     117 H         -1.991611   -3.370913   2.743865 H        1 UNL1     0.0234
     118 H         -0.982499   -3.393027   -4.271638 H        1 UNL1     0.0309
     119 H         -1.265648   -4.777596   -3.171249 H        1 UNL1     0.0309
     120 H         -1.592048   -4.885174   -4.887071 H        1 UNL1     0.0309
     121 H         -1.667118   -5.842968   1.308738 H        1 UNL1     0.0524
     122 H         -0.400036   -5.000826   2.209935 H        1 UNL1     0.0524
     123 H         -2.080467   -4.953644   2.799568 H        1 UNL1     0.0524
@<TRIPOS>BOND
     1     1     2    1
     2     1    42    1
     3     2     3    2
     4     3     4    1
     5     4     5    2
     6     5     7    1
     7     6    75    1
     8     6    76    1
     9     6    77    1
    10     7     9   am
    11     9    10    1
    12    10    11    2
    13    10    43    1
    14    11    14    1
    15    11    15    1
    16    12    13   ar
    17    12    27   ar
    18    12    43    1
    19    13    14    1
    20    13    30   ar
    21    14    17    2
    22    15    16    1
    23    16    17    1
    24    16    18    1
    25    16    22    1
    26    18    19    1
    27    19    20    1
    28    20    21    1
    29    21    22    1
    30    23    24    1
    31    23    88    1
    32    23    89    1
    33    24    25    1
    34    24    26    1
    35    24    90    1
    36    25    91    1
    37    25    92    1
    38    25    93    1
    39    26    94    1
    40    26    95    1
    41    26    96    1
    42    27    28   ar
    43    28    29   ar
    44    29    30   ar
    45    29    31    1
    46    30    33    1
    47    31    32    1
    48    32    33    1
    49    32    35    1
    50    34    97    1
    51    34    98    1
    52    34    99    1
    53    35    61    1
    54    36    37    1
    55    36    60    1
    56    37    38    1
    57    38    39    1
    58    39    40    1
    59    40    41    1
    60    41    42    1
    61    45   100    1
    62    47   101    1
    63    47   102    1
    64    47   103    1
    65    48   104    1
    66    49   105    1
    67    49   106    1
    68    49   107    1
    69    50   108    1
    70    51    59    1
    71    52   109    1
    72    52   110    1
    73    52   111    1
    74    53    54    1
    75    54    55    2
    76    54    56    1
    77    56   112    1
    78    56   113    1
    79    56   114    1
    80    57   115    1
    81    57   116    1
    82    57   117    1
    83    58   118    1
    84    58   119    1
    85    58   120    1
    86    59   121    1
    87    59   122    1
    88    59   123    1
    89    60    61    2
    90     1    47    1
    91     1    62    1
    92     2    63    1
    93     3    64    1
    94     4    65    1
    95     5     6    1
    96     7     8    2
    97     9    78    1
    98    15    79    1
    99    18    80    1
   100    18    81    1
   101    19    82    1
   102    19    83    1
   103    20    23    1
   104    21    84    1
   105    21    85    1
   106    22    86    1
   107    22    87    1
   108    27    45    1
   109    28    34    1
   110    32    58    1
   111    33    46    2
   112    36    51    1
   113    36    66    1
   114    37    52    1
   115    37    67    1
   116    38    53    1
   117    38    68    1
   118    42    48    1
   119    42    72    1
   120    43    44    2
   121    60    73    1
   122    61    74    1
   123    39    69    1
   124    39    57    1
   125    40    70    1
   126    40    50    1
   127    41    71    1
   128    41    49    1
