@<TRIPOS>MOLECULE
*****
 123 128 0 0 0
SMALL
GASTEIGER

@<TRIPOS>ATOM
     1 C         5.115819   1.894534   0.500886 C.3        1 UNL1     0.0009
     2 C         6.512511   2.780617   -0.33646 C.2        1 UNL1     -0.0787
     3 C         7.792094   2.752211   -1.013148 C.2        1 UNL1     -0.0649
     4 C         8.613597   4.041752   -1.740179 C.2        1 UNL1     -0.0542
     5 C         9.61381   4.40065   -2.677112 C.2        1 UNL1     0.0115
     6 C         10.759364   3.844894   -3.567148 C.3        1 UNL1     -0.0348
     7 C         9.64509   5.902546   -3.243078 C.2        1 UNL1     0.2441
     8 O         10.438377   6.746003   -2.84836 O.2        1 UNL1     -0.2702
     9 N         8.878149   6.111103   -4.402586 N.am        1 UNL1     -0.2772
     10 C         7.583474   6.43724   -4.069762 C.2        1 UNL1     0.1049
     11 C         6.779475   5.425031   -3.79913 C.2        1 UNL1     0.0801
     12 C         6.232873   7.951325   -2.606629 C.ar        1 UNL1     0.0753
     13 C         5.522991   6.782035   -2.185399 C.ar        1 UNL1     0.0305
     14 C         5.68701   5.500193   -2.867332 C.2        1 UNL1     0.0924
     15 N         6.953877   4.10689   -3.995641 N.pl3        1 UNL1     -0.3170
     16 C         5.711451   3.448845   -3.689685 C.3        1 UNL1     0.1275
     17 N         5.044992   4.350635   -2.679571 N.2        1 UNL1     -0.2557
     18 C         4.84716   3.508096   -4.945548 C.3        1 UNL1     0.0016
     19 C         5.620013   2.885947   -6.097598 C.3        1 UNL1     0.0026
     20 N         5.947999   1.509786   -5.751716 N.3        1 UNL1     -0.3018
     21 C         6.726734   1.346402   -4.522389 C.3        1 UNL1     0.0026
     22 C         5.92972   1.974221   -3.377615 C.3        1 UNL1     0.0016
     23 C         6.416295   0.739369   -6.886528 C.3        1 UNL1     0.0012
     24 C         5.26417   0.470595   -7.867409 C.3        1 UNL1     -0.0339
     25 C         5.240585   1.505423   -9.004348 C.3        1 UNL1     -0.0615
     26 C         5.357024   -0.947271   -8.403893 C.3        1 UNL1     -0.0615
     27 C         5.981897   9.194569   -2.030892 C.ar        1 UNL1     0.1347
     28 C         5.020298   9.399068   -1.057466 C.ar        1 UNL1     0.0342
     29 C         4.368226   8.225207   -0.623857 C.ar        1 UNL1     0.1435
     30 C         4.63481   6.967307   -1.165927 C.ar        1 UNL1     0.0774
     31 O         3.330172   8.273526   0.239344 O.3        1 UNL1     -0.4436
     32 C         2.657263   7.017056   0.068025 C.3        1 UNL1     0.3143
     33 C         3.705287   6.08035   -0.498048 C.2        1 UNL1     0.2504
     34 C         4.522646   10.733582   -0.576306 C.3        1 UNL1     -0.0327
     35 O         2.324581   6.530453   1.374085 O.2        1 UNL1     -0.4528
     36 C         -0.841629   4.481122   0.945777 C.3        1 UNL1     0.0854
     37 C         -1.103257   3.234259   0.016042 C.3        1 UNL1     0.0236
     38 C         -1.646806   1.929073   0.77287 C.3        1 UNL1     0.1131
     39 C         -0.890339   1.39239   2.054275 C.3        1 UNL1     0.0200
     40 C         0.775612   1.312613   2.080358 C.3        1 UNL1     0.0661
     41 C         1.75585   0.615127   0.884425 C.3        1 UNL1     0.0091
     42 C         3.443158   1.061236   0.319286 C.3        1 UNL1     0.0661
     43 C         7.181736   7.812623   -3.739184 C.2        1 UNL1     0.2131
     44 O         7.539823   8.745315   -4.435314 O.2        1 UNL1     -0.2851
     45 O         6.748566   10.273594   -2.466051 O.3        1 UNL1     -0.5056
     46 O         3.770378   4.875308   -0.400626 O.2        1 UNL1     -0.2836
     47 C         5.540172   1.44223   1.924026 C.3        1 UNL1     -0.0566
     48 O         3.94838   -0.332421   0.359133 O.3        1 UNL1     -0.3909
     49 C         0.922033   0.383149   -0.355909 C.3        1 UNL1     -0.0577
     50 O         1.329687   2.542425   2.5026 O.3        1 UNL1     -0.3910
     51 O         -0.947241   4.248713   2.332234 O.3        1 UNL1     -0.3753
     52 C         -0.062194   3.147379   -1.147396 C.3        1 UNL1     -0.0564
     53 O         -2.214366   0.891669   -0.151249 O.3        1 UNL1     -0.4608
     54 C         -2.38114   -0.434938   0.149132 C.2        1 UNL1     0.3042
     55 O         -1.772747   -1.3913   -0.329478 O.2        1 UNL1     -0.2512
     56 C         -3.394396   -0.684088   1.229849 C.3        1 UNL1     0.0332
     57 C         -1.627721   1.997217   3.338263 C.3        1 UNL1     -0.0567
     58 C         1.564753   7.248261   -1.001786 C.3        1 UNL1     0.0210
     59 C         -1.332225   5.386051   3.103023 C.3        1 UNL1     0.0372
     60 C         0.459335   5.169132   0.723753 C.2        1 UNL1     -0.0208
     61 C         1.360866   5.616793   1.598731 C.2        1 UNL1     0.0882
     62 H         4.601639   2.856051   0.618428 H        1 UNL1     0.0365
     63 H         6.205187   3.819607   -0.200365 H        1 UNL1     0.0576
     64 H         8.286292   1.810913   -1.263816 H        1 UNL1     0.0615
     65 H         8.093026   4.927043   -1.365014 H        1 UNL1     0.0622
     66 H         -1.617903   5.205328   0.661225 H        1 UNL1     0.0645
     67 H         -1.985195   3.525177   -0.580708 H        1 UNL1     0.0362
     68 H         -2.60782   2.317801   1.142821 H        1 UNL1     0.0741
     69 H         -1.179664   0.363838   2.223927 H        1 UNL1     0.0359
     70 H         0.920523   0.633507   2.942261 H        1 UNL1     0.0600
     71 H         1.84352   -0.414732   1.282747 H        1 UNL1     0.0348
     72 H         3.325458   1.517884   1.312732 H        1 UNL1     0.0602
     73 H         0.561204   5.399165   -0.30773 H        1 UNL1     0.0628
     74 H         1.360058   5.376484   2.662446 H        1 UNL1     0.1022
     75 H         10.849166   2.738531   -3.444963 H        1 UNL1     0.0279
     76 H         10.634144   3.952449   -4.642239 H        1 UNL1     0.0279
     77 H         11.753965   4.180693   -3.238955 H        1 UNL1     0.0279
     78 H         8.846891   5.254008   -4.950754 H        1 UNL1     0.1553
     79 H         7.630906   3.722965   -4.629018 H        1 UNL1     0.1484
     80 H         3.907801   2.97384   -4.75862 H        1 UNL1     0.0317
     81 H         4.577204   4.541919   -5.186348 H        1 UNL1     0.0317
     82 H         6.526747   3.460764   -6.337038 H        1 UNL1     0.0428
     83 H         4.986251   2.940247   -6.983288 H        1 UNL1     0.0428
     84 H         6.891033   0.301078   -4.2429 H        1 UNL1     0.0428
     85 H         7.740459   1.758202   -4.622884 H        1 UNL1     0.0428
     86 H         6.462771   1.72012   -2.480242 H        1 UNL1     0.0317
     87 H         4.971146   1.4544   -3.259215 H        1 UNL1     0.0317
     88 H         7.185952   1.326881   -7.403975 H        1 UNL1     0.0429
     89 H         6.889051   -0.197488   -6.5647 H        1 UNL1     0.0429
     90 H         4.311964   0.524401   -7.326464 H        1 UNL1     0.0308
     91 H         6.187411   1.515658   -9.552544 H        1 UNL1     0.0233
     92 H         4.425256   1.295749   -9.700684 H        1 UNL1     0.0233
     93 H         5.074492   2.525466   -8.63725 H        1 UNL1     0.0233
     94 H         4.660012   -1.081866   -9.238096 H        1 UNL1     0.0233
     95 H         6.367552   -1.14118   -8.77429 H        1 UNL1     0.0233
     96 H         5.117148   -1.682868   -7.631025 H        1 UNL1     0.0233
     97 H         3.737699   10.631819   0.167154 H        1 UNL1     0.0280
     98 H         5.315583   11.322807   -0.097431 H        1 UNL1     0.0280
     99 H         4.119962   11.30617   -1.427824 H        1 UNL1     0.0280
     100 H         6.24942   11.013363   -2.764745 H        1 UNL1     0.2922
     101 H         4.699326   0.960672   2.422761 H        1 UNL1     0.0236
     102 H         5.96289   2.248938   2.521952 H        1 UNL1     0.0236
     103 H         6.327864   0.670909   1.89576 H        1 UNL1     0.0236
     104 H         4.379385   -0.465238   1.226061 H        1 UNL1     0.2098
     105 H         0.709721   1.282225   -0.928969 H        1 UNL1     0.0234
     106 H         1.291498   -0.404696   -1.012204 H        1 UNL1     0.0234
     107 H         0.0   -0.0   0.0 H        1 UNL1     0.0234
     108 H         1.099609   3.210843   1.828768 H        1 UNL1     0.2098
     109 H         0.969279   3.064829   -0.777314 H        1 UNL1     0.0234
     110 H         -0.266665   2.330449   -1.847796 H        1 UNL1     0.0234
     111 H         -0.081371   4.047807   -1.775734 H        1 UNL1     0.0234
     112 H         -3.472789   -1.757711   1.426148 H        1 UNL1     0.0342
     113 H         -3.163444   -0.135964   2.142025 H        1 UNL1     0.0342
     114 H         -4.372255   -0.335169   0.870388 H        1 UNL1     0.0342
     115 H         -2.68624   1.705234   3.376641 H        1 UNL1     0.0234
     116 H         -1.172982   1.709111   4.288135 H        1 UNL1     0.0234
     117 H         -1.710702   3.09755   3.320281 H        1 UNL1     0.0234
     118 H         0.648169   7.687158   -0.57022 H        1 UNL1     0.0309
     119 H         1.903745   7.873464   -1.833897 H        1 UNL1     0.0309
     120 H         1.210451   6.313383   -1.449647 H        1 UNL1     0.0309
     121 H         -0.558595   6.143765   2.981687 H        1 UNL1     0.0524
     122 H         -2.283074   5.823969   2.756393 H        1 UNL1     0.0524
     123 H         -1.430108   5.11466   4.150334 H        1 UNL1     0.0524
@<TRIPOS>BOND
     1     1     2    1
     2     1    42    1
     3     2     3    2
     4     3     4    1
     5     4     5    2
     6     5     7    1
     7     6    75    1
     8     6    76    1
     9     6    77    1
    10     7     9   am
    11     9    10    1
    12    10    11    2
    13    10    43    1
    14    11    14    1
    15    11    15    1
    16    12    13   ar
    17    12    27   ar
    18    12    43    1
    19    13    14    1
    20    13    30   ar
    21    14    17    2
    22    15    16    1
    23    16    17    1
    24    16    18    1
    25    16    22    1
    26    18    19    1
    27    19    20    1
    28    20    21    1
    29    21    22    1
    30    23    24    1
    31    23    88    1
    32    23    89    1
    33    24    25    1
    34    24    26    1
    35    24    90    1
    36    25    91    1
    37    25    92    1
    38    25    93    1
    39    26    94    1
    40    26    95    1
    41    26    96    1
    42    27    28   ar
    43    28    29   ar
    44    29    30   ar
    45    29    31    1
    46    30    33    1
    47    31    32    1
    48    32    33    1
    49    32    35    1
    50    34    97    1
    51    34    98    1
    52    34    99    1
    53    35    61    1
    54    36    37    1
    55    36    60    1
    56    37    38    1
    57    38    39    1
    58    39    40    1
    59    40    41    1
    60    41    42    1
    61    45   100    1
    62    47   101    1
    63    47   102    1
    64    47   103    1
    65    48   104    1
    66    49   105    1
    67    49   106    1
    68    49   107    1
    69    50   108    1
    70    51    59    1
    71    52   109    1
    72    52   110    1
    73    52   111    1
    74    53    54    1
    75    54    55    2
    76    54    56    1
    77    56   112    1
    78    56   113    1
    79    56   114    1
    80    57   115    1
    81    57   116    1
    82    57   117    1
    83    58   118    1
    84    58   119    1
    85    58   120    1
    86    59   121    1
    87    59   122    1
    88    59   123    1
    89    60    61    2
    90     1    47    1
    91     1    62    1
    92     2    63    1
    93     3    64    1
    94     4    65    1
    95     5     6    1
    96     7     8    2
    97     9    78    1
    98    15    79    1
    99    18    80    1
   100    18    81    1
   101    19    82    1
   102    19    83    1
   103    20    23    1
   104    21    84    1
   105    21    85    1
   106    22    86    1
   107    22    87    1
   108    27    45    1
   109    28    34    1
   110    32    58    1
   111    33    46    2
   112    36    51    1
   113    36    66    1
   114    37    52    1
   115    37    67    1
   116    38    53    1
   117    38    68    1
   118    42    48    1
   119    42    72    1
   120    43    44    2
   121    60    73    1
   122    61    74    1
   123    39    69    1
   124    39    57    1
   125    40    70    1
   126    40    50    1
   127    41    71    1
   128    41    49    1
