@<TRIPOS>MOLECULE
*****
 123 128 0 0 0
SMALL
GASTEIGER

@<TRIPOS>ATOM
     1 C         5.003929   1.073285   1.954611 C.3        1 UNL1     0.0009
     2 C         6.747447   1.542148   1.533481 C.2        1 UNL1     -0.0787
     3 C         8.133673   1.175027   1.334364 C.2        1 UNL1     -0.0649
     4 C         9.398482   2.151113   0.774122 C.2        1 UNL1     -0.0542
     5 C         10.689618   2.157211   0.191019 C.2        1 UNL1     0.0115
     6 C         11.901394   1.262168   -0.188217 C.3        1 UNL1     -0.0348
     7 C         11.219158   3.500842   -0.509861 C.2        1 UNL1     0.2441
     8 O         12.018574   4.258496   0.022511 O.2        1 UNL1     -0.2702
     9 N         10.907009   3.615045   -1.875757 N.am        1 UNL1     -0.2772
     10 C         9.676605   4.208962   -2.039129 C.2        1 UNL1     0.1049
     11 C         8.627668   3.413534   -1.933068 C.2        1 UNL1     0.0801
     12 C         8.309474   6.172793   -1.309983 C.ar        1 UNL1     0.0753
     13 C         7.267588   5.237586   -1.012549 C.ar        1 UNL1     0.0305
     14 C         7.347397   3.842158   -1.438534 C.2        1 UNL1     0.0924
     15 N         8.561269   2.07157   -1.897725 N.pl3        1 UNL1     -0.3170
     16 C         7.17249   1.698842   -1.948922 C.3        1 UNL1     0.1275
     17 N         6.443871   2.871272   -1.338802 N.2        1 UNL1     -0.2557
     18 C         6.766833   1.666807   -3.419337 C.3        1 UNL1     0.0016
     19 C         7.698422   0.720953   -4.160344 C.3        1 UNL1     0.0026
     20 N         7.596468   -0.60189   -3.559745 N.3        1 UNL1     -0.3018
     21 C         7.908146   -0.661333   -2.130167 C.3        1 UNL1     0.0026
     22 C         6.957615   0.292692   -1.404755 C.3        1 UNL1     0.0016
     23 C         8.208071   -1.637238   -4.368844 C.3        1 UNL1     0.0012
     24 C         7.380132   -1.887635   -5.639109 C.3        1 UNL1     -0.0339
     25 C         8.134087   -1.434569   -6.900196 C.3        1 UNL1     -0.0615
     26 C         6.982129   -3.351063   -5.721275 C.3        1 UNL1     -0.0615
     27 C         8.172976   7.525606   -1.007687 C.ar        1 UNL1     0.1347
     28 C         7.029596   8.065352   -0.446075 C.ar        1 UNL1     0.0342
     29 C         6.036533   7.118369   -0.117117 C.ar        1 UNL1     0.1435
     30 C         6.17404   5.755025   -0.380943 C.ar        1 UNL1     0.0774
     31 O         4.82174   7.49915   0.33487 O.3        1 UNL1     -0.4436
     32 C         3.97563   6.363077   0.101827 C.3        1 UNL1     0.3143
     33 C         4.91506   5.175764   0.03881 C.2        1 UNL1     0.2504
     34 C         6.713169   9.530126   -0.326027 C.3        1 UNL1     -0.0327
     35 O         3.162968   6.190559   1.269334 O.2        1 UNL1     -0.4528
     36 C         -0.089485   4.655338   0.055773 C.3        1 UNL1     0.0854
     37 C         -0.321132   3.318737   -0.748814 C.3        1 UNL1     0.0236
     38 C         -1.340758   2.286633   -0.065536 C.3        1 UNL1     0.1131
     39 C         -1.147141   1.879161   1.450627 C.3        1 UNL1     0.0200
     40 C         0.371921   1.528577   2.043904 C.3        1 UNL1     0.0661
     41 C         1.492681   0.466981   1.340683 C.3        1 UNL1     0.0091
     42 C         3.326565   0.511977   1.324896 C.3        1 UNL1     0.0661
     43 C         9.503906   5.669265   -2.032515 C.2        1 UNL1     0.2131
     44 O         10.25173   6.382974   -2.676034 O.2        1 UNL1     -0.2851
     45 O         9.252031   8.361341   -1.288089 O.3        1 UNL1     -0.5056
     46 O         4.682472   4.016264   0.298261 O.2        1 UNL1     -0.2836
     47 C         4.864904   0.829351   3.481421 C.3        1 UNL1     -0.0566
     48 O         3.478344   -0.91436   1.701252 O.3        1 UNL1     -0.3909
     49 C         1.046923   0.150769   -0.069567 C.3        1 UNL1     -0.0577
     50 O         1.025588   2.705382   2.474686 O.3        1 UNL1     -0.3910
     51 O         -0.660605   4.705985   1.343674 O.3        1 UNL1     -0.3753
     52 C         0.979505   2.844241   -1.47555 C.3        1 UNL1     -0.0564
     53 O         -1.811977   1.204971   -0.993052 O.3        1 UNL1     -0.4608
     54 C         -2.036488   -0.100736   -0.642833 C.2        1 UNL1     0.3042
     55 O         -1.31097   -1.069128   -0.865724 O.2        1 UNL1     -0.2512
     56 C         -3.297816   -0.303013   0.147641 C.3        1 UNL1     0.0332
     57 C         -2.08983   2.826877   2.328891 C.3        1 UNL1     -0.0567
     58 C         3.339277   6.57027   -1.292323 C.3        1 UNL1     0.0210
     59 C         -1.796183   5.561669   1.462556 C.3        1 UNL1     0.0372
     60 C         1.334535   5.062924   0.201374 C.2        1 UNL1     -0.0208
     61 C         2.001505   5.508663   1.266838 C.2        1 UNL1     0.0882
     62 H         4.701488   2.111997   1.774836 H        1 UNL1     0.0365
     63 H         6.648046   2.624782   1.431046 H        1 UNL1     0.0576
     64 H         8.46257   0.134453   1.38062 H        1 UNL1     0.0615
     65 H         8.99497   3.165035   0.842119 H        1 UNL1     0.0622
     66 H         -0.564231   5.433209   -0.558701 H        1 UNL1     0.0645
     67 H         -0.893365   3.636626   -1.637665 H        1 UNL1     0.0362
     68 H         -2.259477   2.892344   -0.089842 H        1 UNL1     0.0741
     69 H         -1.691746   0.963172   1.63711 H        1 UNL1     0.0359
     70 H         0.095295   1.007256   2.98026 H        1 UNL1     0.0600
     71 H         1.227613   -0.470671   1.86747 H        1 UNL1     0.0348
     72 H         3.014514   1.158665   2.157803 H        1 UNL1     0.0602
     73 H         1.793509   5.076667   -0.755916 H        1 UNL1     0.0628
     74 H         1.624156   5.474093   2.289408 H        1 UNL1     0.1022
     75 H         12.179743   0.597236   0.664674 H        1 UNL1     0.0279
     76 H         11.745758   0.552345   -0.997536 H        1 UNL1     0.0279
     77 H         12.828514   1.837637   -0.325999 H        1 UNL1     0.0279
     78 H         10.857816   2.688376   -2.294017 H        1 UNL1     0.1553
     79 H         9.29803   1.468905   -2.215392 H        1 UNL1     0.1484
     80 H         5.722325   1.341174   -3.495046 H        1 UNL1     0.0317
     81 H         6.815782   2.668053   -3.860653 H        1 UNL1     0.0317
     82 H         8.737546   1.081532   -4.149572 H        1 UNL1     0.0428
     83 H         7.39261   0.714521   -5.207 H        1 UNL1     0.0428
     84 H         7.746947   -1.648871   -1.686778 H        1 UNL1     0.0428
     85 H         8.96851   -0.450599   -1.933862 H        1 UNL1     0.0428
     86 H         7.122854   0.124661   -0.356686 H        1 UNL1     0.0317
     87 H         5.919326   -0.028509   -1.552683 H        1 UNL1     0.0317
     88 H         9.207597   -1.293216   -4.665311 H        1 UNL1     0.0429
     89 H         8.343626   -2.563384   -3.795562 H        1 UNL1     0.0429
     90 H         6.441285   -1.325179   -5.572607 H        1 UNL1     0.0308
     91 H         9.172127   -1.780176   -6.888677 H        1 UNL1     0.0233
     92 H         7.64131   -1.809272   -7.800405 H        1 UNL1     0.0233
     93 H         8.163399   -0.342738   -6.999592 H        1 UNL1     0.0233
     94 H         6.748451   -3.621367   -6.75673 H        1 UNL1     0.0233
     95 H         7.809734   -3.982713   -5.386534 H        1 UNL1     0.0233
     96 H         6.105031   -3.56139   -5.102866 H        1 UNL1     0.0233
     97 H         7.343786   10.024474   0.406893 H        1 UNL1     0.0280
     98 H         6.87264   10.066709   -1.270434 H        1 UNL1     0.0280
     99 H         5.66207   9.656666   -0.018989 H        1 UNL1     0.0280
     100 H         9.272531   8.692107   -2.168882 H        1 UNL1     0.2922
     101 H         4.357655   1.675595   3.944264 H        1 UNL1     0.0236
     102 H         5.81368   0.605317   3.967853 H        1 UNL1     0.0236
     103 H         4.22247   -0.038599   3.705329 H        1 UNL1     0.0236
     104 H         2.782611   -1.12251   2.355164 H        1 UNL1     0.2098
     105 H         1.221111   0.950085   -0.785503 H        1 UNL1     0.0234
     106 H         1.417297   -0.795891   -0.46274 H        1 UNL1     0.0234
     107 H         0.0   -0.0   0.0 H        1 UNL1     0.0234
     108 H         1.96983   2.48596   2.593134 H        1 UNL1     0.2098
     109 H         1.339311   3.58078   -2.207507 H        1 UNL1     0.0234
     110 H         1.789841   2.588545   -0.784378 H        1 UNL1     0.0234
     111 H         0.811585   1.919054   -2.042806 H        1 UNL1     0.0234
     112 H         -3.40602   -1.35932   0.411938 H        1 UNL1     0.0342
     113 H         -3.33042   0.327128   1.035167 H        1 UNL1     0.0342
     114 H         -4.149629   -0.026101   -0.488675 H        1 UNL1     0.0342
     115 H         -2.474704   2.309102   3.218256 H        1 UNL1     0.0234
     116 H         -1.604975   3.744689   2.667395 H        1 UNL1     0.0234
     117 H         -3.029317   3.105313   1.821172 H        1 UNL1     0.0234
     118 H         3.098209   7.630418   -1.484625 H        1 UNL1     0.0309
     119 H         3.96116   6.190519   -2.109179 H        1 UNL1     0.0309
     120 H         2.370169   6.069022   -1.390747 H        1 UNL1     0.0309
     121 H         -1.860393   5.881777   2.502155 H        1 UNL1     0.0524
     122 H         -1.703945   6.468021   0.841222 H        1 UNL1     0.0524
     123 H         -2.699331   5.029386   1.17779 H        1 UNL1     0.0524
@<TRIPOS>BOND
     1     1     2    1
     2     1    42    1
     3     2     3    2
     4     3     4    1
     5     4     5    2
     6     5     7    1
     7     6    75    1
     8     6    76    1
     9     6    77    1
    10     7     9   am
    11     9    10    1
    12    10    11    2
    13    10    43    1
    14    11    14    1
    15    11    15    1
    16    12    13   ar
    17    12    27   ar
    18    12    43    1
    19    13    14    1
    20    13    30   ar
    21    14    17    2
    22    15    16    1
    23    16    17    1
    24    16    18    1
    25    16    22    1
    26    18    19    1
    27    19    20    1
    28    20    21    1
    29    21    22    1
    30    23    24    1
    31    23    88    1
    32    23    89    1
    33    24    25    1
    34    24    26    1
    35    24    90    1
    36    25    91    1
    37    25    92    1
    38    25    93    1
    39    26    94    1
    40    26    95    1
    41    26    96    1
    42    27    28   ar
    43    28    29   ar
    44    29    30   ar
    45    29    31    1
    46    30    33    1
    47    31    32    1
    48    32    33    1
    49    32    35    1
    50    34    97    1
    51    34    98    1
    52    34    99    1
    53    35    61    1
    54    36    37    1
    55    36    60    1
    56    37    38    1
    57    38    39    1
    58    39    40    1
    59    40    41    1
    60    41    42    1
    61    45   100    1
    62    47   101    1
    63    47   102    1
    64    47   103    1
    65    48   104    1
    66    49   105    1
    67    49   106    1
    68    49   107    1
    69    50   108    1
    70    51    59    1
    71    52   109    1
    72    52   110    1
    73    52   111    1
    74    53    54    1
    75    54    55    2
    76    54    56    1
    77    56   112    1
    78    56   113    1
    79    56   114    1
    80    57   115    1
    81    57   116    1
    82    57   117    1
    83    58   118    1
    84    58   119    1
    85    58   120    1
    86    59   121    1
    87    59   122    1
    88    59   123    1
    89    60    61    2
    90     1    47    1
    91     1    62    1
    92     2    63    1
    93     3    64    1
    94     4    65    1
    95     5     6    1
    96     7     8    2
    97     9    78    1
    98    15    79    1
    99    18    80    1
   100    18    81    1
   101    19    82    1
   102    19    83    1
   103    20    23    1
   104    21    84    1
   105    21    85    1
   106    22    86    1
   107    22    87    1
   108    27    45    1
   109    28    34    1
   110    32    58    1
   111    33    46    2
   112    36    51    1
   113    36    66    1
   114    37    52    1
   115    37    67    1
   116    38    53    1
   117    38    68    1
   118    42    48    1
   119    42    72    1
   120    43    44    2
   121    60    73    1
   122    61    74    1
   123    39    69    1
   124    39    57    1
   125    40    70    1
   126    40    50    1
   127    41    71    1
   128    41    49    1
