@<TRIPOS>MOLECULE
*****
 123 128 0 0 0
SMALL
GASTEIGER

@<TRIPOS>ATOM
     1 C         5.161522   1.766086   0.489099 C.3        1 UNL1     0.0009
     2 C         6.60042   2.562731   -0.366451 C.2        1 UNL1     -0.0787
     3 C         7.885535   2.45755   -1.024831 C.2        1 UNL1     -0.0649
     4 C         8.763879   3.683357   -1.79442 C.2        1 UNL1     -0.0542
     5 C         9.787586   3.964413   -2.732561 C.2        1 UNL1     0.0115
     6 C         10.921028   3.32878   -3.583797 C.3        1 UNL1     -0.0348
     7 C         9.882635   5.438837   -3.360279 C.2        1 UNL1     0.2441
     8 O         10.703079   6.267679   -2.990931 O.2        1 UNL1     -0.2702
     9 N         9.137357   5.627051   -4.537261 N.am        1 UNL1     -0.2772
     10 C         7.852421   6.015543   -4.235041 C.2        1 UNL1     0.1049
     11 C         7.007318   5.046703   -3.932766 C.2        1 UNL1     0.0801
     12 C         6.544263   7.63989   -2.853899 C.ar        1 UNL1     0.0753
     13 C         5.785497   6.517026   -2.393401 C.ar        1 UNL1     0.0305
     14 C         5.908082   5.202274   -3.019062 C.2        1 UNL1     0.0924
     15 N         7.133412   3.715804   -4.071819 N.pl3        1 UNL1     -0.3170
     16 C         5.863368   3.118587   -3.754684 C.3        1 UNL1     0.1275
     17 N         5.220514   4.086697   -2.79176 N.2        1 UNL1     -0.2557
     18 C         5.016197   3.15734   -5.022951 C.3        1 UNL1     0.0016
     19 C         5.777651   2.458419   -6.137978 C.3        1 UNL1     0.0026
     20 N         6.048872   1.086691   -5.730757 N.3        1 UNL1     -0.3018
     21 C         6.806874   0.946078   -4.485756 C.3        1 UNL1     0.0026
     22 C         6.021577   1.651264   -3.378545 C.3        1 UNL1     0.0016
     23 C         6.500149   0.251953   -6.826296 C.3        1 UNL1     0.0012
     24 C         5.348618   -0.017939   -7.807566 C.3        1 UNL1     -0.0339
     25 C         5.367925   0.972575   -8.983392 C.3        1 UNL1     -0.0615
     26 C         5.400888   -1.457631   -8.288537 C.3        1 UNL1     -0.0615
     27 C         6.334513   8.914905   -2.333841 C.ar        1 UNL1     0.1347
     28 C         5.370514   9.196425   -1.382263 C.ar        1 UNL1     0.0342
     29 C         4.669197   8.06734   -0.908463 C.ar        1 UNL1     0.1435
     30 C         4.893602   6.778525   -1.394073 C.ar        1 UNL1     0.0774
     31 O         3.624077   8.191164   -0.061469 O.3        1 UNL1     -0.4436
     32 C         2.905607   6.954858   -0.188839 C.3        1 UNL1     0.3143
     33 C         3.92338   5.956235   -0.701775 C.2        1 UNL1     0.2504
     34 C         4.91884   10.567876   -0.963677 C.3        1 UNL1     -0.0327
     35 O         2.539855   6.536702   1.132002 O.2        1 UNL1     -0.4528
     36 C         -0.697341   4.592   0.74888 C.3        1 UNL1     0.0854
     37 C         -0.995933   3.317767   -0.131287 C.3        1 UNL1     0.0236
     38 C         -1.597478   2.067114   0.672302 C.3        1 UNL1     0.1131
     39 C         -0.876583   1.556839   1.984628 C.3        1 UNL1     0.0200
     40 C         0.7847   1.415456   2.035468 C.3        1 UNL1     0.0661
     41 C         1.750991   0.631645   0.882414 C.3        1 UNL1     0.0091
     42 C         3.460386   0.989548   0.320919 C.3        1 UNL1     0.0661
     43 C         7.499847   7.417825   -3.967364 C.2        1 UNL1     0.2131
     44 O         7.901154   8.306137   -4.697153 O.2        1 UNL1     -0.2851
     45 O         7.146727   9.944918   -2.803755 O.3        1 UNL1     -0.5056
     46 O         3.941258   4.754781   -0.553306 O.2        1 UNL1     -0.2836
     47 C         5.552193   1.358562   1.935226 C.3        1 UNL1     -0.0566
     48 O         3.911485   -0.419249   0.42541 O.3        1 UNL1     -0.3909
     49 C         0.922961   0.379142   -0.357789 C.3        1 UNL1     -0.0577
     50 O         1.38058   2.640218   2.413105 O.3        1 UNL1     -0.3910
     51 O         -0.827395   4.42246   2.142356 O.3        1 UNL1     -0.3753
     52 C         0.054107   3.14266   -1.276583 C.3        1 UNL1     -0.0564
     53 O         -2.193816   1.01378   -0.214938 O.3        1 UNL1     -0.4608
     54 C         -2.414947   -0.291629   0.138526 C.2        1 UNL1     0.3042
     55 O         -1.838688   -1.289846   -0.291972 O.2        1 UNL1     -0.2512
     56 C         -3.448875   -0.456101   1.215863 C.3        1 UNL1     0.0332
     57 C         -1.604746   2.242696   3.232648 C.3        1 UNL1     -0.0567
     58 C         1.834873   7.181749   -1.281349 C.3        1 UNL1     0.0210
     59 C         -1.18499   5.603285   2.859045 C.3        1 UNL1     0.0372
     60 C         0.631393   5.220469   0.5151 C.2        1 UNL1     -0.0208
     61 C         1.539447   5.670336   1.382165 C.2        1 UNL1     0.0882
     62 H         4.683178   2.750415   0.559771 H        1 UNL1     0.0365
     63 H         6.33152   3.61739   -0.277815 H        1 UNL1     0.0576
     64 H         8.346188   1.488543   -1.229603 H        1 UNL1     0.0615
     65 H         8.27333   4.602696   -1.463271 H        1 UNL1     0.0622
     66 H         -1.442106   5.332315   0.424373 H        1 UNL1     0.0645
     67 H         -1.859318   3.616298   -0.750968 H        1 UNL1     0.0362
     68 H         -2.547044   2.507079   1.013299 H        1 UNL1     0.0741
     69 H         -1.206908   0.548008   2.193328 H        1 UNL1     0.0359
     70 H         0.893815   0.768348   2.926762 H        1 UNL1     0.0600
     71 H         1.794731   -0.38306   1.324476 H        1 UNL1     0.0348
     72 H         3.349027   1.491829   1.292839 H        1 UNL1     0.0602
     73 H         0.75361   5.402759   -0.523689 H        1 UNL1     0.0628
     74 H         1.517454   5.475335   2.454885 H        1 UNL1     0.1022
     75 H         10.96709   2.225959   -3.414389 H        1 UNL1     0.0279
     76 H         10.812147   3.395513   -4.663964 H        1 UNL1     0.0279
     77 H         11.923971   3.640377   -3.257128 H        1 UNL1     0.0279
     78 H         9.079546   4.749375   -5.04953 H        1 UNL1     0.1553
     79 H         7.802374   3.280229   -4.679847 H        1 UNL1     0.1484
     80 H         4.055054   2.667259   -4.825995 H        1 UNL1     0.0317
     81 H         4.788689   4.189525   -5.310153 H        1 UNL1     0.0317
     82 H         6.708338   2.98801   -6.38951 H        1 UNL1     0.0428
     83 H         5.156461   2.499156   -7.033251 H        1 UNL1     0.0428
     84 H         6.927933   -0.091973   -4.160782 H        1 UNL1     0.0428
     85 H         7.836669   1.314741   -4.590292 H        1 UNL1     0.0428
     86 H         6.534368   1.415336   -2.464558 H        1 UNL1     0.0317
     87 H         5.042559   1.173428   -3.250902 H        1 UNL1     0.0317
     88 H         7.295306   0.788995   -7.359783 H        1 UNL1     0.0429
     89 H         6.935914   -0.686293   -6.45945 H        1 UNL1     0.0429
     90 H         4.393942   0.086644   -7.27854 H        1 UNL1     0.0308
     91 H         6.318127   0.929565   -9.524104 H        1 UNL1     0.0233
     92 H         4.55049   0.764053   -9.677603 H        1 UNL1     0.0233
     93 H         5.234424   2.011038   -8.656885 H        1 UNL1     0.0233
     94 H         4.707222   -1.602208   -9.123858 H        1 UNL1     0.0233
     95 H         6.407905   -1.697415   -8.641217 H        1 UNL1     0.0233
     96 H         5.13097   -2.154998   -7.490545 H        1 UNL1     0.0233
     97 H         4.122239   10.527259   -0.226787 H        1 UNL1     0.0280
     98 H         5.728267   11.14646   -0.499646 H        1 UNL1     0.0280
     99 H         4.547969   11.118798   -1.843469 H        1 UNL1     0.0280
     100 H         6.679623   10.689451   -3.140069 H        1 UNL1     0.2922
     101 H         4.687982   0.930538   2.44276 H        1 UNL1     0.0236
     102 H         5.998666   2.173268   2.504349 H        1 UNL1     0.0236
     103 H         6.310094   0.557576   1.949327 H        1 UNL1     0.0236
     104 H         4.32729   -0.531522   1.302605 H        1 UNL1     0.2098
     105 H         0.711711   1.268902   -0.945592 H        1 UNL1     0.0234
     106 H         1.296545   -0.418131   -1.00022 H        1 UNL1     0.0234
     107 H         0.0   -0.0   0.0 H        1 UNL1     0.0234
     108 H         1.181436   3.288552   1.710415 H        1 UNL1     0.2098
     109 H         1.07743   3.036957   -0.890127 H        1 UNL1     0.0234
     110 H         -0.173527   2.305193   -1.944846 H        1 UNL1     0.0234
     111 H         0.076452   4.01585   -1.942155 H        1 UNL1     0.0234
     112 H         -3.573043   -1.516936   1.453681 H        1 UNL1     0.0342
     113 H         -3.205414   0.118474   2.108294 H        1 UNL1     0.0342
     114 H         -4.407844   -0.082769   0.830941 H        1 UNL1     0.0342
     115 H         -2.668576   1.972791   3.283677 H        1 UNL1     0.0234
     116 H         -1.157045   1.997211   4.197713 H        1 UNL1     0.0234
     117 H         -1.667211   3.341857   3.155933 H        1 UNL1     0.0234
     118 H         0.930925   7.672726   -0.880318 H        1 UNL1     0.0309
     119 H         2.20688   7.758047   -2.134398 H        1 UNL1     0.0309
     120 H         1.450169   6.242832   -1.694319 H        1 UNL1     0.0309
     121 H         -0.387418   6.331382   2.713751 H        1 UNL1     0.0524
     122 H         -2.118571   6.05415   2.483297 H        1 UNL1     0.0524
     123 H         -1.301384   5.380722   3.915933 H        1 UNL1     0.0524
@<TRIPOS>BOND
     1     1     2    1
     2     1    42    1
     3     2     3    2
     4     3     4    1
     5     4     5    2
     6     5     7    1
     7     6    75    1
     8     6    76    1
     9     6    77    1
    10     7     9   am
    11     9    10    1
    12    10    11    2
    13    10    43    1
    14    11    14    1
    15    11    15    1
    16    12    13   ar
    17    12    27   ar
    18    12    43    1
    19    13    14    1
    20    13    30   ar
    21    14    17    2
    22    15    16    1
    23    16    17    1
    24    16    18    1
    25    16    22    1
    26    18    19    1
    27    19    20    1
    28    20    21    1
    29    21    22    1
    30    23    24    1
    31    23    88    1
    32    23    89    1
    33    24    25    1
    34    24    26    1
    35    24    90    1
    36    25    91    1
    37    25    92    1
    38    25    93    1
    39    26    94    1
    40    26    95    1
    41    26    96    1
    42    27    28   ar
    43    28    29   ar
    44    29    30   ar
    45    29    31    1
    46    30    33    1
    47    31    32    1
    48    32    33    1
    49    32    35    1
    50    34    97    1
    51    34    98    1
    52    34    99    1
    53    35    61    1
    54    36    37    1
    55    36    60    1
    56    37    38    1
    57    38    39    1
    58    39    40    1
    59    40    41    1
    60    41    42    1
    61    45   100    1
    62    47   101    1
    63    47   102    1
    64    47   103    1
    65    48   104    1
    66    49   105    1
    67    49   106    1
    68    49   107    1
    69    50   108    1
    70    51    59    1
    71    52   109    1
    72    52   110    1
    73    52   111    1
    74    53    54    1
    75    54    55    2
    76    54    56    1
    77    56   112    1
    78    56   113    1
    79    56   114    1
    80    57   115    1
    81    57   116    1
    82    57   117    1
    83    58   118    1
    84    58   119    1
    85    58   120    1
    86    59   121    1
    87    59   122    1
    88    59   123    1
    89    60    61    2
    90     1    47    1
    91     1    62    1
    92     2    63    1
    93     3    64    1
    94     4    65    1
    95     5     6    1
    96     7     8    2
    97     9    78    1
    98    15    79    1
    99    18    80    1
   100    18    81    1
   101    19    82    1
   102    19    83    1
   103    20    23    1
   104    21    84    1
   105    21    85    1
   106    22    86    1
   107    22    87    1
   108    27    45    1
   109    28    34    1
   110    32    58    1
   111    33    46    2
   112    36    51    1
   113    36    66    1
   114    37    52    1
   115    37    67    1
   116    38    53    1
   117    38    68    1
   118    42    48    1
   119    42    72    1
   120    43    44    2
   121    60    73    1
   122    61    74    1
   123    39    69    1
   124    39    57    1
   125    40    70    1
   126    40    50    1
   127    41    71    1
   128    41    49    1
