@<TRIPOS>MOLECULE
*****
 123 128 0 0 0
SMALL
GASTEIGER

@<TRIPOS>ATOM
     1 C         4.60789   2.922287   -0.489226 C.3        1 UNL1     0.0009
     2 C         6.014691   3.393955   -1.600747 C.2        1 UNL1     -0.0787
     3 C         7.397209   3.251758   -2.006296 C.2        1 UNL1     -0.0649
     4 C         8.169846   3.960451   -3.335635 C.2        1 UNL1     -0.0542
     5 C         9.282612   3.882696   -4.20901 C.2        1 UNL1     0.0115
     6 C         10.648815   3.181649   -4.444268 C.3        1 UNL1     -0.0348
     7 C         9.227674   4.666397   -5.608933 C.2        1 UNL1     0.2441
     8 O         9.804452   5.72812   -5.800239 O.2        1 UNL1     -0.2702
     9 N         8.691583   3.926684   -6.677381 N.am        1 UNL1     -0.2772
     10 C         7.324604   4.075904   -6.72661 C.2        1 UNL1     0.1049
     11 C         6.624716   3.296873   -5.921941 C.2        1 UNL1     0.0801
     12 C         5.515218   5.802816   -6.691523 C.ar        1 UNL1     0.0753
     13 C         4.896966   5.021062   -5.664278 C.ar        1 UNL1     0.0305
     14 C         5.365619   3.675596   -5.340031 C.2        1 UNL1     0.0924
     15 N         7.009624   2.227017   -5.205157 N.pl3        1 UNL1     -0.3170
     16 C         5.830047   1.63346   -4.633717 C.3        1 UNL1     0.1275
     17 N         4.858014   2.779952   -4.497958 N.2        1 UNL1     -0.2557
     18 C         5.239021   0.699443   -5.685383 C.3        1 UNL1     0.0016
     19 C         6.305809   -0.300341   -6.1025 C.3        1 UNL1     0.0026
     20 N         6.737196   -1.042283   -4.925872 N.3        1 UNL1     -0.3018
     21 C         7.264514   -0.222726   -3.83288 C.3        1 UNL1     0.0026
     22 C         6.175013   0.771183   -3.426645 C.3        1 UNL1     0.0016
     23 C         7.524833   -2.213533   -5.255181 C.3        1 UNL1     0.0012
     24 C         6.642469   -3.290456   -5.905893 C.3        1 UNL1     -0.0339
     25 C         7.107788   -4.705176   -5.523659 C.3        1 UNL1     -0.0615
     26 C         5.186462   -3.062588   -5.538605 C.3        1 UNL1     -0.0615
     27 C         4.988948   7.033359   -7.077427 C.ar        1 UNL1     0.1347
     28 C         3.831082   7.565339   -6.538545 C.ar        1 UNL1     0.0342
     29 C         3.266999   6.801276   -5.494905 C.ar        1 UNL1     0.1435
     30 C         3.803521   5.584209   -5.072874 C.ar        1 UNL1     0.0774
     31 O         2.078203   7.130075   -4.943851 O.3        1 UNL1     -0.4436
     32 C         1.627871   5.924806   -4.307142 C.3        1 UNL1     0.3143
     33 C         2.884434   5.115769   -4.0567 C.2        1 UNL1     0.2504
     34 C         3.072584   8.748387   -7.072566 C.3        1 UNL1     -0.0327
     35 O         1.104623   6.290622   -3.024316 O.2        1 UNL1     -0.4528
     36 C         -1.606244   3.751031   -2.243442 C.3        1 UNL1     0.0854
     37 C         -1.504773   2.179344   -2.159626 C.3        1 UNL1     0.0236
     38 C         -2.011763   1.542067   -0.778111 C.3        1 UNL1     0.1131
     39 C         -1.466843   2.108629   0.594601 C.3        1 UNL1     0.0200
     40 C         0.154473   2.452788   0.78255 C.3        1 UNL1     0.0661
     41 C         1.441392   1.417612   0.39543 C.3        1 UNL1     0.0091
     42 C         3.133447   1.795348   -0.204291 C.3        1 UNL1     0.0661
     43 C         6.684297   5.218748   -7.394644 C.2        1 UNL1     0.2131
     44 O         7.048732   5.570973   -8.50183 O.2        1 UNL1     -0.2851
     45 O         5.677152   7.751999   -8.052809 O.3        1 UNL1     -0.5056
     46 O         3.088488   4.287219   -3.197792 O.2        1 UNL1     -0.2836
     47 C         4.790598   3.562545   0.913153 C.3        1 UNL1     -0.0566
     48 O         3.801287   0.892142   0.763865 O.3        1 UNL1     -0.3909
     49 C         0.91561   0.281826   -0.45371 C.3        1 UNL1     -0.0577
     50 O         0.442093   3.765688   0.345178 O.3        1 UNL1     -0.3910
     51 O         -1.959476   4.410162   -1.048367 O.3        1 UNL1     -0.3753
     52 C         -0.246895   1.636503   -2.913295 C.3        1 UNL1     -0.0564
     53 O         -2.236123   0.059761   -0.847082 O.3        1 UNL1     -0.4608
     54 C         -1.962654   -0.833315   0.155694 C.2        1 UNL1     0.3042
     55 O         -0.873835   -1.050637   0.685866 O.2        1 UNL1     -0.2512
     56 C         -3.176401   -1.559562   0.661754 C.3        1 UNL1     0.0332
     57 C         -2.523729   3.185333   1.125523 C.3        1 UNL1     -0.0567
     58 C         0.754726   5.181797   -5.344969 C.3        1 UNL1     0.0210
     59 C         -3.28128   4.947087   -1.028125 C.3        1 UNL1     0.0372
     60 C         -0.39094   4.43264   -2.766515 C.2        1 UNL1     -0.0208
     61 C         0.246013   5.519876   -2.329531 C.2        1 UNL1     0.0882
     62 H         3.957008   3.596632   -1.05872 H        1 UNL1     0.0365
     63 H         5.550358   4.186061   -2.191875 H        1 UNL1     0.0576
     64 H         8.053069   2.505538   -1.552301 H        1 UNL1     0.0615
     65 H         7.470573   4.735567   -3.660743 H        1 UNL1     0.0622
     66 H         -2.397987   3.937477   -2.982649 H        1 UNL1     0.0645
     67 H         -2.277771   1.822929   -2.862478 H        1 UNL1     0.0362
     68 H         -3.070983   1.838902   -0.816376 H        1 UNL1     0.0741
     69 H         -1.644792   1.374668   1.369226 H        1 UNL1     0.0359
     70 H         0.210437   2.5105   1.886451 H        1 UNL1     0.0600
     71 H         1.582827   0.911963   1.370762 H        1 UNL1     0.0348
     72 H         2.756468   2.725349   0.245488 H        1 UNL1     0.0602
     73 H         -0.113168   3.990546   -3.690984 H        1 UNL1     0.0628
     74 H         0.061091   5.997738   -1.366884 H        1 UNL1     0.1022
     75 H         11.256592   3.183016   -3.507444 H        1 UNL1     0.0279
     76 H         10.614243   2.124903   -4.699536 H        1 UNL1     0.0279
     77 H         11.302696   3.742921   -5.127726 H        1 UNL1     0.0279
     78 H         8.886981   2.937175   -6.540383 H        1 UNL1     0.1553
     79 H         7.846276   1.704637   -5.389728 H        1 UNL1     0.1484
     80 H         4.361102   0.195644   -5.263232 H        1 UNL1     0.0317
     81 H         4.888223   1.263115   -6.556512 H        1 UNL1     0.0317
     82 H         7.157345   0.19379   -6.593044 H        1 UNL1     0.0428
     83 H         5.863823   -0.955305   -6.85398 H        1 UNL1     0.0428
     84 H         7.506496   -0.795681   -2.932336 H        1 UNL1     0.0428
     85 H         8.213334   0.260014   -4.104944 H        1 UNL1     0.0428
     86 H         6.543582   1.260042   -2.543943 H        1 UNL1     0.0317
     87 H         5.290458   0.231328   -3.067181 H        1 UNL1     0.0317
     88 H         8.298214   -1.913848   -5.974463 H        1 UNL1     0.0429
     89 H         8.042948   -2.607101   -4.371193 H        1 UNL1     0.0429
     90 H         6.695899   -3.187978   -6.99624 H        1 UNL1     0.0308
     91 H         7.303296   -4.783036   -4.449966 H        1 UNL1     0.0233
     92 H         6.358209   -5.447971   -5.806494 H        1 UNL1     0.0233
     93 H         8.032973   -4.993507   -6.037208 H        1 UNL1     0.0233
     94 H         4.808323   -3.906824   -4.951994 H        1 UNL1     0.0233
     95 H         5.091762   -2.159404   -4.9293 H        1 UNL1     0.0233
     96 H         4.56232   -2.954068   -6.43003 H        1 UNL1     0.0233
     97 H         2.048163   8.494145   -7.327817 H        1 UNL1     0.0280
     98 H         3.006341   9.562774   -6.339325 H        1 UNL1     0.0280
     99 H         3.570917   9.127305   -7.979859 H        1 UNL1     0.0280
     100 H         6.601124   7.838418   -7.896506 H        1 UNL1     0.2922
     101 H         4.109802   4.406328   1.023618 H        1 UNL1     0.0236
     102 H         5.822518   3.838907   1.127042 H        1 UNL1     0.0236
     103 H         4.511354   2.869589   1.724342 H        1 UNL1     0.0236
     104 H         3.10309   0.396697   1.235063 H        1 UNL1     0.2098
     105 H         0.706226   0.552202   -1.485634 H        1 UNL1     0.0234
     106 H         1.512451   -0.629356   -0.415578 H        1 UNL1     0.0234
     107 H         0.0   -0.0   0.0 H        1 UNL1     0.0234
     108 H         1.412344   3.836977   0.25974 H        1 UNL1     0.2098
     109 H         -0.263552   1.885586   -3.983524 H        1 UNL1     0.0234
     110 H         0.697559   1.974183   -2.473154 H        1 UNL1     0.0234
     111 H         -0.18696   0.541094   -2.863958 H        1 UNL1     0.0234
     112 H         -2.893033   -2.238569   1.471691 H        1 UNL1     0.0342
     113 H         -3.959617   -0.874295   0.982414 H        1 UNL1     0.0342
     114 H         -3.580833   -2.166123   -0.160245 H        1 UNL1     0.0342
     115 H         -2.58797   3.188101   2.222361 H        1 UNL1     0.0234
     116 H         -2.313933   4.208141   0.806307 H        1 UNL1     0.0234
     117 H         -3.566615   2.950212   0.851574 H        1 UNL1     0.0234
     118 H         -0.313195   5.182368   -5.064701 H        1 UNL1     0.0309
     119 H         0.859137   5.58104   -6.358825 H        1 UNL1     0.0309
     120 H         0.997575   4.11569   -5.412391 H        1 UNL1     0.0309
     121 H         -3.21513   5.996802   -1.312869 H        1 UNL1     0.0524
     122 H         -3.946701   4.448026   -1.752135 H        1 UNL1     0.0524
     123 H         -3.709323   4.854637   -0.033979 H        1 UNL1     0.0524
@<TRIPOS>BOND
     1     1     2    1
     2     1    42    1
     3     2     3    2
     4     3     4    1
     5     4     5    2
     6     5     7    1
     7     6    75    1
     8     6    76    1
     9     6    77    1
    10     7     9   am
    11     9    10    1
    12    10    11    2
    13    10    43    1
    14    11    14    1
    15    11    15    1
    16    12    13   ar
    17    12    27   ar
    18    12    43    1
    19    13    14    1
    20    13    30   ar
    21    14    17    2
    22    15    16    1
    23    16    17    1
    24    16    18    1
    25    16    22    1
    26    18    19    1
    27    19    20    1
    28    20    21    1
    29    21    22    1
    30    23    24    1
    31    23    88    1
    32    23    89    1
    33    24    25    1
    34    24    26    1
    35    24    90    1
    36    25    91    1
    37    25    92    1
    38    25    93    1
    39    26    94    1
    40    26    95    1
    41    26    96    1
    42    27    28   ar
    43    28    29   ar
    44    29    30   ar
    45    29    31    1
    46    30    33    1
    47    31    32    1
    48    32    33    1
    49    32    35    1
    50    34    97    1
    51    34    98    1
    52    34    99    1
    53    35    61    1
    54    36    37    1
    55    36    60    1
    56    37    38    1
    57    38    39    1
    58    39    40    1
    59    40    41    1
    60    41    42    1
    61    45   100    1
    62    47   101    1
    63    47   102    1
    64    47   103    1
    65    48   104    1
    66    49   105    1
    67    49   106    1
    68    49   107    1
    69    50   108    1
    70    51    59    1
    71    52   109    1
    72    52   110    1
    73    52   111    1
    74    53    54    1
    75    54    55    2
    76    54    56    1
    77    56   112    1
    78    56   113    1
    79    56   114    1
    80    57   115    1
    81    57   116    1
    82    57   117    1
    83    58   118    1
    84    58   119    1
    85    58   120    1
    86    59   121    1
    87    59   122    1
    88    59   123    1
    89    60    61    2
    90     1    47    1
    91     1    62    1
    92     2    63    1
    93     3    64    1
    94     4    65    1
    95     5     6    1
    96     7     8    2
    97     9    78    1
    98    15    79    1
    99    18    80    1
   100    18    81    1
   101    19    82    1
   102    19    83    1
   103    20    23    1
   104    21    84    1
   105    21    85    1
   106    22    86    1
   107    22    87    1
   108    27    45    1
   109    28    34    1
   110    32    58    1
   111    33    46    2
   112    36    51    1
   113    36    66    1
   114    37    52    1
   115    37    67    1
   116    38    53    1
   117    38    68    1
   118    42    48    1
   119    42    72    1
   120    43    44    2
   121    60    73    1
   122    61    74    1
   123    39    69    1
   124    39    57    1
   125    40    70    1
   126    40    50    1
   127    41    71    1
   128    41    49    1
