@<TRIPOS>MOLECULE
*****
 123 128 0 0 0
SMALL
GASTEIGER

@<TRIPOS>ATOM
     1 C         5.19813   1.59841   0.650995 C.3        1 UNL1     0.0009
     2 C         6.686481   2.352359   -0.157343 C.2        1 UNL1     -0.0787
     3 C         7.986583   2.209002   -0.778012 C.2        1 UNL1     -0.0649
     4 C         8.926041   3.409459   -1.514679 C.2        1 UNL1     -0.0542
     5 C         9.985611   3.661754   -2.420624 C.2        1 UNL1     0.0115
     6 C         11.123003   2.993937   -3.241407 C.3        1 UNL1     -0.0348
     7 C         10.14623   5.135155   -3.037294 C.2        1 UNL1     0.2441
     8 O         10.981346   5.935643   -2.639392 O.2        1 UNL1     -0.2702
     9 N         9.442631   5.352376   -4.234756 N.am        1 UNL1     -0.2772
     10 C         8.162323   5.780475   -3.968552 C.2        1 UNL1     0.1049
     11 C         7.278152   4.837864   -3.696619 C.2        1 UNL1     0.0801
     12 C         6.866158   7.439727   -2.617932 C.ar        1 UNL1     0.0753
     13 C         6.058631   6.339703   -2.186126 C.ar        1 UNL1     0.0305
     14 C         6.157772   5.024496   -2.814976 C.2        1 UNL1     0.0924
     15 N         7.365826   3.504241   -3.839064 N.pl3        1 UNL1     -0.3170
     16 C         6.068525   2.946603   -3.562832 C.3        1 UNL1     0.1275
     17 N         5.428536   3.930513   -2.614118 N.2        1 UNL1     -0.2557
     18 C         5.261077   3.018112   -4.855355 C.3        1 UNL1     0.0016
     19 C         6.032656   2.300129   -5.951145 C.3        1 UNL1     0.0026
     20 N         6.247784   0.918619   -5.543494 N.3        1 UNL1     -0.3018
     21 C         6.963592   0.748264   -4.27741 C.3        1 UNL1     0.0026
     22 C         6.168625   1.473307   -3.190104 C.3        1 UNL1     0.0016
     23 C         6.704571   0.074738   -6.629705 C.3        1 UNL1     0.0012
     24 C         5.575981   -0.150186   -7.648258 C.3        1 UNL1     -0.0339
     25 C         5.681369   0.828276   -8.829598 C.3        1 UNL1     -0.0615
     26 C         5.577861   -1.594825   -8.117081 C.3        1 UNL1     -0.0615
     27 C         6.681807   8.718479   -2.097428 C.ar        1 UNL1     0.1347
     28 C         5.699425   9.026495   -1.173251 C.ar        1 UNL1     0.0342
     29 C         4.948699   7.918355   -0.726485 C.ar        1 UNL1     0.1435
     30 C         5.146229   6.625186   -1.212198 C.ar        1 UNL1     0.0774
     31 O         3.883353   8.071819   0.089905 O.3        1 UNL1     -0.4436
     32 C         3.129934   6.859738   -0.065313 C.3        1 UNL1     0.3143
     33 C         4.130142   5.831322   -0.553326 C.2        1 UNL1     0.2504
     34 C         5.279468   10.409833   -0.760804 C.3        1 UNL1     -0.0327
     35 O         2.711952   6.447639   1.241866 O.2        1 UNL1     -0.4528
     36 C         -0.572787   4.609341   0.752747 C.3        1 UNL1     0.0854
     37 C         -0.885569   3.349253   -0.142723 C.3        1 UNL1     0.0236
     38 C         -1.550294   2.114946   0.635976 C.3        1 UNL1     0.1131
     39 C         -0.885345   1.57601   1.966262 C.3        1 UNL1     0.0200
     40 C         0.768342   1.381267   2.065416 C.3        1 UNL1     0.0661
     41 C         1.742984   0.572047   0.937212 C.3        1 UNL1     0.0091
     42 C         3.47885   0.877511   0.428423 C.3        1 UNL1     0.0661
     43 C         7.846839   7.192126   -3.70385 C.2        1 UNL1     0.2131
     44 O         8.29777   8.070366   -4.416656 O.2        1 UNL1     -0.2851
     45 O         7.540051   9.724031   -2.537566 O.3        1 UNL1     -0.5056
     46 O         4.105286   4.629263   -0.410878 O.2        1 UNL1     -0.2836
     47 C         5.532469   1.172154   2.105816 C.3        1 UNL1     -0.0566
     48 O         3.8815   -0.545462   0.538597 O.3        1 UNL1     -0.3909
     49 C         0.944541   0.351714   -0.328267 C.3        1 UNL1     -0.0577
     50 O         1.391484   2.584623   2.467102 O.3        1 UNL1     -0.3910
     51 O         -0.749527   4.437856   2.140835 O.3        1 UNL1     -0.3753
     52 C         0.19192   3.145702   -1.257413 C.3        1 UNL1     -0.0564
     53 O         -2.153286   1.08521   -0.274173 O.3        1 UNL1     -0.4608
     54 C         -2.438469   -0.210363   0.069472 C.2        1 UNL1     0.3042
     55 O         -1.88538   -1.230545   -0.33938 O.2        1 UNL1     -0.2512
     56 C         -3.518644   -0.333734   1.106157 C.3        1 UNL1     0.0332
     57 C         -1.628031   2.279279   3.195898 C.3        1 UNL1     -0.0567
     58 C         2.099912   7.125665   -1.187751 C.3        1 UNL1     0.0210
     59 C         -1.051753   5.633293   2.858788 C.3        1 UNL1     0.0372
     60 C         0.781667   5.195965   0.561735 C.2        1 UNL1     -0.0208
     61 C         1.677439   5.612655   1.457673 C.2        1 UNL1     0.0882
     62 H         4.749524   2.597231   0.712808 H        1 UNL1     0.0365
     63 H         6.448828   3.414685   -0.071004 H        1 UNL1     0.0576
     64 H         8.421989   1.226658   -0.974305 H        1 UNL1     0.0615
     65 H         8.45543   4.342556   -1.193218 H        1 UNL1     0.0622
     66 H         -1.2836   5.374566   0.410369 H        1 UNL1     0.0645
     67 H         -1.720204   3.678038   -0.786032 H        1 UNL1     0.0362
     68 H         -2.495062   2.583577   0.951128 H        1 UNL1     0.0741
     69 H         -1.253721   0.577359   2.159661 H        1 UNL1     0.0359
     70 H         0.830239   0.727038   2.956041 H        1 UNL1     0.0600
     71 H         1.741197   -0.445495   1.374891 H        1 UNL1     0.0348
     72 H         3.354733   1.378772   1.399324 H        1 UNL1     0.0602
     73 H         0.940446   5.378866   -0.471989 H        1 UNL1     0.0628
     74 H         1.617377   5.413688   2.528207 H        1 UNL1     0.1022
     75 H         11.128827   1.889465   -3.076665 H        1 UNL1     0.0279
     76 H         11.048448   3.068928   -4.323944 H        1 UNL1     0.0279
     77 H         12.125222   3.271796   -2.883562 H        1 UNL1     0.0279
     78 H         9.372113   4.47929   -4.753238 H        1 UNL1     0.1553
     79 H         8.038331   3.050173   -4.429397 H        1 UNL1     0.1484
     80 H         4.279371   2.558195   -4.689539 H        1 UNL1     0.0317
     81 H         5.075229   4.058322   -5.143581 H        1 UNL1     0.0317
     82 H         6.986817   2.800753   -6.172199 H        1 UNL1     0.0428
     83 H         5.439955   2.364723   -6.864153 H        1 UNL1     0.0428
     84 H         7.041784   -0.294567   -3.954607 H        1 UNL1     0.0428
     85 H         8.007267   1.084217   -4.349474 H        1 UNL1     0.0428
     86 H         6.64625   1.217013   -2.262647 H        1 UNL1     0.0317
     87 H         5.17151   1.02651   -3.094032 H        1 UNL1     0.0317
     88 H         7.534028   0.586989   -7.134576 H        1 UNL1     0.0429
     89 H         7.096246   -0.879872   -6.255429 H        1 UNL1     0.0429
     90 H         4.609655   0.002818   -7.153267 H        1 UNL1     0.0308
     91 H         6.650096   0.743471   -9.331074 H        1 UNL1     0.0233
     92 H         4.884915   0.645543   -9.554773 H        1 UNL1     0.0233
     93 H         5.575741   1.874027   -8.516414 H        1 UNL1     0.0233
     94 H         4.908393   -1.714106   -8.975813 H        1 UNL1     0.0233
     95 H         6.584468   -1.884259   -8.431617 H        1 UNL1     0.0233
     96 H         5.247307   -2.271992   -7.324525 H        1 UNL1     0.0233
     97 H         4.454382   10.391725   -0.055017 H        1 UNL1     0.0280
     98 H         6.089979   10.956802   -0.261651 H        1 UNL1     0.0280
     99 H         4.96161   10.979356   -1.649457 H        1 UNL1     0.0280
     100 H         7.107101   10.485435   -2.881719 H        1 UNL1     0.2922
     101 H         4.640353   0.769775   2.585269 H        1 UNL1     0.0236
     102 H         5.987582   1.969602   2.692274 H        1 UNL1     0.0236
     103 H         6.263694   0.347249   2.137989 H        1 UNL1     0.0236
     104 H         4.267267   -0.674896   1.42708 H        1 UNL1     0.2098
     105 H         0.778682   1.250521   -0.916864 H        1 UNL1     0.0234
     106 H         1.311885   -0.453757   -0.964036 H        1 UNL1     0.0234
     107 H         0.0   -0.0   0.0 H        1 UNL1     0.0234
     108 H         1.237097   3.2411   1.760722 H        1 UNL1     0.2098
     109 H         1.199418   3.005559   -0.841457 H        1 UNL1     0.0234
     110 H         -0.042342   2.318936   -1.936621 H        1 UNL1     0.0234
     111 H         0.261859   4.02068   -1.917313 H        1 UNL1     0.0234
     112 H         -3.690737   -1.388614   1.340592 H        1 UNL1     0.0342
     113 H         -3.288991   0.23417   2.006484 H        1 UNL1     0.0342
     114 H         -4.447666   0.073297   0.683774 H        1 UNL1     0.0342
     115 H         -2.705352   2.063522   3.19983 H        1 UNL1     0.0234
     116 H         -1.23296   1.996551   4.173667 H        1 UNL1     0.0234
     117 H         -1.631614   3.381234   3.135701 H        1 UNL1     0.0234
     118 H         1.20056   7.643553   -0.810968 H        1 UNL1     0.0309
     119 H         2.515286   7.693541   -2.026311 H        1 UNL1     0.0309
     120 H         1.697909   6.201398   -1.616971 H        1 UNL1     0.0309
     121 H         -0.205645   6.310124   2.743216 H        1 UNL1     0.0524
     122 H         -1.943583   6.145861   2.461359 H        1 UNL1     0.0524
     123 H         -1.212396   5.410108   3.909729 H        1 UNL1     0.0524
@<TRIPOS>BOND
     1     1     2    1
     2     1    42    1
     3     2     3    2
     4     3     4    1
     5     4     5    2
     6     5     7    1
     7     6    75    1
     8     6    76    1
     9     6    77    1
    10     7     9   am
    11     9    10    1
    12    10    11    2
    13    10    43    1
    14    11    14    1
    15    11    15    1
    16    12    13   ar
    17    12    27   ar
    18    12    43    1
    19    13    14    1
    20    13    30   ar
    21    14    17    2
    22    15    16    1
    23    16    17    1
    24    16    18    1
    25    16    22    1
    26    18    19    1
    27    19    20    1
    28    20    21    1
    29    21    22    1
    30    23    24    1
    31    23    88    1
    32    23    89    1
    33    24    25    1
    34    24    26    1
    35    24    90    1
    36    25    91    1
    37    25    92    1
    38    25    93    1
    39    26    94    1
    40    26    95    1
    41    26    96    1
    42    27    28   ar
    43    28    29   ar
    44    29    30   ar
    45    29    31    1
    46    30    33    1
    47    31    32    1
    48    32    33    1
    49    32    35    1
    50    34    97    1
    51    34    98    1
    52    34    99    1
    53    35    61    1
    54    36    37    1
    55    36    60    1
    56    37    38    1
    57    38    39    1
    58    39    40    1
    59    40    41    1
    60    41    42    1
    61    45   100    1
    62    47   101    1
    63    47   102    1
    64    47   103    1
    65    48   104    1
    66    49   105    1
    67    49   106    1
    68    49   107    1
    69    50   108    1
    70    51    59    1
    71    52   109    1
    72    52   110    1
    73    52   111    1
    74    53    54    1
    75    54    55    2
    76    54    56    1
    77    56   112    1
    78    56   113    1
    79    56   114    1
    80    57   115    1
    81    57   116    1
    82    57   117    1
    83    58   118    1
    84    58   119    1
    85    58   120    1
    86    59   121    1
    87    59   122    1
    88    59   123    1
    89    60    61    2
    90     1    47    1
    91     1    62    1
    92     2    63    1
    93     3    64    1
    94     4    65    1
    95     5     6    1
    96     7     8    2
    97     9    78    1
    98    15    79    1
    99    18    80    1
   100    18    81    1
   101    19    82    1
   102    19    83    1
   103    20    23    1
   104    21    84    1
   105    21    85    1
   106    22    86    1
   107    22    87    1
   108    27    45    1
   109    28    34    1
   110    32    58    1
   111    33    46    2
   112    36    51    1
   113    36    66    1
   114    37    52    1
   115    37    67    1
   116    38    53    1
   117    38    68    1
   118    42    48    1
   119    42    72    1
   120    43    44    2
   121    60    73    1
   122    61    74    1
   123    39    69    1
   124    39    57    1
   125    40    70    1
   126    40    50    1
   127    41    71    1
   128    41    49    1
