@<TRIPOS>MOLECULE
*****
 123 128 0 0 0
SMALL
GASTEIGER

@<TRIPOS>ATOM
     1 C         2.548054   3.688775   3.148351 C.3        1 UNL1     0.0009
     2 C         3.408745   5.330042   3.198271 C.2        1 UNL1     -0.0787
     3 C         4.628904   6.107273   3.254585 C.2        1 UNL1     -0.0649
     4 C         4.798008   7.788171   3.143491 C.2        1 UNL1     -0.0542
     5 C         5.695218   8.849024   2.866575 C.2        1 UNL1     0.0115
     6 C         7.189519   9.201499   2.629621 C.3        1 UNL1     -0.0348
     7 C         5.100205   10.297949   2.515056 C.2        1 UNL1     0.2441
     8 O         5.070187   11.218253   3.320454 O.2        1 UNL1     -0.2702
     9 N         4.856491   10.518827   1.14832 N.am        1 UNL1     -0.2772
     10 C         3.590509   10.09747   0.812062 C.2        1 UNL1     0.1049
     11 C         3.453734   8.808102   0.560971 C.2        1 UNL1     0.0801
     12 C         1.195439   10.253643   1.516748 C.ar        1 UNL1     0.0753
     13 C         1.15834   8.82546   1.429996 C.ar        1 UNL1     0.0305
     14 C         2.249431   8.067229   0.822002 C.2        1 UNL1     0.0924
     15 N         4.388466   7.860661   0.373466 N.pl3        1 UNL1     -0.3170
     16 C         3.717178   6.656581   -0.038626 C.3        1 UNL1     0.1275
     17 N         2.340231   6.764525   0.569722 N.2        1 UNL1     -0.2557
     18 C         3.520727   6.742756   -1.54915 C.3        1 UNL1     0.0016
     19 C         4.87524   6.961916   -2.204018 C.3        1 UNL1     0.0026
     20 N         5.750098   5.852113   -1.851896 N.3        1 UNL1     -0.3018
     21 C         5.951006   5.650368   -0.415475 C.3        1 UNL1     0.0026
     22 C         4.578215   5.427551   0.221466 C.3        1 UNL1     0.0016
     23 C         6.954743   5.806405   -2.656498 C.3        1 UNL1     0.0012
     24 C         6.622635   5.399871   -4.100863 C.3        1 UNL1     -0.0339
     25 C         7.750926   4.560373   -4.72236 C.3        1 UNL1     -0.0615
     26 C         5.292729   4.667512   -4.143049 C.3        1 UNL1     -0.0615
     27 C         0.101646   10.976837   1.986563 C.ar        1 UNL1     0.1347
     28 C         -1.093259   10.387586   2.359436 C.ar        1 UNL1     0.0342
     29 C         -1.089707   8.977303   2.311967 C.ar        1 UNL1     0.1435
     30 C         0.010999   8.237592   1.877808 C.ar        1 UNL1     0.0774
     31 O         -2.212799   8.261683   2.53903 O.3        1 UNL1     -0.4436
     32 C         -1.949344   6.977769   1.953344 C.3        1 UNL1     0.3143
     33 C         -0.438924   6.861775   1.916051 C.2        1 UNL1     0.2504
     34 C         -2.384471   11.107935   2.631409 C.3        1 UNL1     -0.0327
     35 O         -2.421414   5.98522   2.872717 O.2        1 UNL1     -0.4528
     36 C         -3.467281   3.015918   0.751986 C.3        1 UNL1     0.0854
     37 C         -2.616801   2.179853   -0.2801 C.3        1 UNL1     0.0236
     38 C         -2.582682   0.600288   -0.005229 C.3        1 UNL1     0.1131
     39 C         -2.211003   0.061819   1.434971 C.3        1 UNL1     0.0200
     40 C         -0.942858   0.732221   2.286327 C.3        1 UNL1     0.0661
     41 C         0.623675   0.996564   1.691593 C.3        1 UNL1     0.0091
     42 C         1.840315   2.311579   2.086467 C.3        1 UNL1     0.0661
     43 C         2.4048   10.945386   1.005673 C.2        1 UNL1     0.2131
     44 O         2.416874   12.112979   0.660249 O.2        1 UNL1     -0.2851
     45 O         0.236145   12.36036   2.082552 O.3        1 UNL1     -0.5056
     46 O         0.240606   5.85993   1.936028 O.2        1 UNL1     -0.2836
     47 C         2.573198   3.023796   4.550903 C.3        1 UNL1     -0.0566
     48 O         2.972252   1.369835   2.2624 O.3        1 UNL1     -0.3909
     49 C         0.605409   0.849918   0.186384 C.3        1 UNL1     -0.0577
     50 O         -1.374743   1.856228   3.026466 O.3        1 UNL1     -0.3910
     51 O         -3.942659   2.308364   1.874846 O.3        1 UNL1     -0.3753
     52 C         -1.356179   2.966186   -0.767401 C.3        1 UNL1     -0.0564
     53 O         -2.077066   -0.201046   -1.169077 O.3        1 UNL1     -0.4608
     54 C         -1.288603   -1.31852   -1.082437 C.2        1 UNL1     0.3042
     55 O         -0.07782   -1.395974   -1.286995 O.2        1 UNL1     -0.2512
     56 C         -2.03001   -2.544019   -0.629469 C.3        1 UNL1     0.0332
     57 C         -3.579701   -0.200338   2.219901 C.3        1 UNL1     -0.0567
     58 C         -2.480767   7.041495   0.502462 C.3        1 UNL1     0.0210
     59 C         -5.346302   2.052156   1.87169 C.3        1 UNL1     0.0372
     60 C         -2.801104   4.242685   1.268138 C.2        1 UNL1     -0.0208
     61 C         -2.71368   4.721543   2.509829 C.2        1 UNL1     0.0882
     62 H         1.589421   4.215481   3.068881 H        1 UNL1     0.0365
     63 H         2.553305   6.007195   3.244709 H        1 UNL1     0.0576
     64 H         5.612036   5.633294   3.210969 H        1 UNL1     0.0615
     65 H         3.779167   8.161957   3.276651 H        1 UNL1     0.0622
     66 H         -4.335851   3.364491   0.175679 H        1 UNL1     0.0645
     67 H         -3.20488   2.22762   -1.213074 H        1 UNL1     0.0362
     68 H         -3.650353   0.367511   -0.137192 H        1 UNL1     0.0741
     69 H         -1.919235   -0.976768   1.353624 H        1 UNL1     0.0359
     70 H         -0.785943   -0.05625   3.047084 H        1 UNL1     0.0600
     71 H         1.108607   0.048389   1.99616 H        1 UNL1     0.0348
     72 H         1.122967   2.301945   2.919915 H        1 UNL1     0.0602
     73 H         -2.461866   4.826823   0.449023 H        1 UNL1     0.0628
     74 H         -2.984603   4.163228   3.406558 H        1 UNL1     0.1022
     75 H         7.832606   8.727426   3.409831 H        1 UNL1     0.0279
     76 H         7.633618   8.836247   1.706346 H        1 UNL1     0.0279
     77 H         7.405394   10.26806   2.789454 H        1 UNL1     0.0279
     78 H         5.516652   9.979904   0.5917 H        1 UNL1     0.1553
     79 H         5.343103   8.059256   0.136487 H        1 UNL1     0.1484
     80 H         3.050402   5.816947   -1.901911 H        1 UNL1     0.0317
     81 H         2.838828   7.559516   -1.809088 H        1 UNL1     0.0317
     82 H         5.318834   7.924442   -1.909604 H        1 UNL1     0.0428
     83 H         4.711813   7.022217   -3.28045 H        1 UNL1     0.0428
     84 H         6.546354   4.763761   -0.176103 H        1 UNL1     0.0428
     85 H         6.511524   6.478855   0.039218 H        1 UNL1     0.0428
     86 H         4.773429   5.152766   1.241452 H        1 UNL1     0.0317
     87 H         4.111654   4.528225   -0.19881 H        1 UNL1     0.0317
     88 H         7.395473   6.811839   -2.668971 H        1 UNL1     0.0429
     89 H         7.702168   5.133044   -2.217506 H        1 UNL1     0.0429
     90 H         6.486062   6.303902   -4.706082 H        1 UNL1     0.0308
     91 H         7.545945   4.334289   -5.77306 H        1 UNL1     0.0233
     92 H         8.707327   5.083225   -4.647991 H        1 UNL1     0.0233
     93 H         7.887002   3.599764   -4.210941 H        1 UNL1     0.0233
     94 H         5.070091   4.347474   -5.166691 H        1 UNL1     0.0233
     95 H         5.337643   3.774791   -3.512975 H        1 UNL1     0.0233
     96 H         4.475063   5.304696   -3.794642 H        1 UNL1     0.0233
     97 H         -3.184943   10.769232   1.980443 H        1 UNL1     0.0280
     98 H         -2.741446   10.944634   3.656669 H        1 UNL1     0.0280
     99 H         -2.244146   12.189667   2.472474 H        1 UNL1     0.0280
     100 H         1.017393   12.648285   2.521156 H        1 UNL1     0.2922
     101 H         1.59118   3.108771   5.015744 H        1 UNL1     0.0236
     102 H         3.364516   3.408351   5.193488 H        1 UNL1     0.0236
     103 H         2.761776   1.938852   4.491509 H        1 UNL1     0.0236
     104 H         2.625567   0.571784   2.707252 H        1 UNL1     0.2098
     105 H         0.166995   1.692969   -0.341697 H        1 UNL1     0.0234
     106 H         1.564966   0.584102   -0.256921 H        1 UNL1     0.0234
     107 H         0.0   0.0   0.0 H        1 UNL1     0.0234
     108 H         -0.575773   2.338481   3.314297 H        1 UNL1     0.2098
     109 H         -1.621554   3.902951   -1.277067 H        1 UNL1     0.0234
     110 H         -0.642399   3.17592   0.036511 H        1 UNL1     0.0234
     111 H         -0.773922   2.386161   -1.495751 H        1 UNL1     0.0234
     112 H         -1.341416   -3.391706   -0.561566 H        1 UNL1     0.0342
     113 H         -2.547039   -2.383978   0.315471 H        1 UNL1     0.0342
     114 H         -2.788214   -2.785876   -1.386963 H        1 UNL1     0.0342
     115 H         -3.497298   -1.049571   2.912145 H        1 UNL1     0.0234
     116 H         -3.933626   0.658196   2.7941 H        1 UNL1     0.0234
     117 H         -4.403659   -0.536599   1.567242 H        1 UNL1     0.0234
     118 H         -3.375058   6.409785   0.360365 H        1 UNL1     0.0309
     119 H         -2.70578   8.060401   0.171702 H        1 UNL1     0.0309
     120 H         -1.767863   6.637191   -0.224458 H        1 UNL1     0.0309
     121 H         -5.655248   1.895931   2.90489 H        1 UNL1     0.0524
     122 H         -5.926019   2.903102   1.476903 H        1 UNL1     0.0524
     123 H         -5.565971   1.169822   1.277277 H        1 UNL1     0.0524
@<TRIPOS>BOND
     1     1     2    1
     2     1    42    1
     3     2     3    2
     4     3     4    1
     5     4     5    2
     6     5     7    1
     7     6    75    1
     8     6    76    1
     9     6    77    1
    10     7     9   am
    11     9    10    1
    12    10    11    2
    13    10    43    1
    14    11    14    1
    15    11    15    1
    16    12    13   ar
    17    12    27   ar
    18    12    43    1
    19    13    14    1
    20    13    30   ar
    21    14    17    2
    22    15    16    1
    23    16    17    1
    24    16    18    1
    25    16    22    1
    26    18    19    1
    27    19    20    1
    28    20    21    1
    29    21    22    1
    30    23    24    1
    31    23    88    1
    32    23    89    1
    33    24    25    1
    34    24    26    1
    35    24    90    1
    36    25    91    1
    37    25    92    1
    38    25    93    1
    39    26    94    1
    40    26    95    1
    41    26    96    1
    42    27    28   ar
    43    28    29   ar
    44    29    30   ar
    45    29    31    1
    46    30    33    1
    47    31    32    1
    48    32    33    1
    49    32    35    1
    50    34    97    1
    51    34    98    1
    52    34    99    1
    53    35    61    1
    54    36    37    1
    55    36    60    1
    56    37    38    1
    57    38    39    1
    58    39    40    1
    59    40    41    1
    60    41    42    1
    61    45   100    1
    62    47   101    1
    63    47   102    1
    64    47   103    1
    65    48   104    1
    66    49   105    1
    67    49   106    1
    68    49   107    1
    69    50   108    1
    70    51    59    1
    71    52   109    1
    72    52   110    1
    73    52   111    1
    74    53    54    1
    75    54    55    2
    76    54    56    1
    77    56   112    1
    78    56   113    1
    79    56   114    1
    80    57   115    1
    81    57   116    1
    82    57   117    1
    83    58   118    1
    84    58   119    1
    85    58   120    1
    86    59   121    1
    87    59   122    1
    88    59   123    1
    89    60    61    2
    90     1    47    1
    91     1    62    1
    92     2    63    1
    93     3    64    1
    94     4    65    1
    95     5     6    1
    96     7     8    2
    97     9    78    1
    98    15    79    1
    99    18    80    1
   100    18    81    1
   101    19    82    1
   102    19    83    1
   103    20    23    1
   104    21    84    1
   105    21    85    1
   106    22    86    1
   107    22    87    1
   108    27    45    1
   109    28    34    1
   110    32    58    1
   111    33    46    2
   112    36    51    1
   113    36    66    1
   114    37    52    1
   115    37    67    1
   116    38    53    1
   117    38    68    1
   118    42    48    1
   119    42    72    1
   120    43    44    2
   121    60    73    1
   122    61    74    1
   123    39    69    1
   124    39    57    1
   125    40    70    1
   126    40    50    1
   127    41    71    1
   128    41    49    1
