@<TRIPOS>MOLECULE
*****
 123 128 0 0 0
SMALL
GASTEIGER

@<TRIPOS>ATOM
     1 C         -4.256963   -0.34545   -3.065058 C.3        1 UNL1     0.0009
     2 C         -5.029784   0.488833   -4.529215 C.2        1 UNL1     -0.0787
     3 C         -6.10117   1.271968   -5.107902 C.2        1 UNL1     -0.0649
     4 C         -6.203178   1.895445   -6.678643 C.2        1 UNL1     -0.0542
     5 C         -6.826886   2.861581   -7.506078 C.2        1 UNL1     0.0115
     6 C         -7.96988   3.911735   -7.569836 C.3        1 UNL1     -0.0348
     7 C         -6.151534   3.230066   -8.915016 C.2        1 UNL1     0.2441
     8 O         -6.564324   2.800366   -9.983421 O.2        1 UNL1     -0.2702
     9 N         -5.220546   4.282148   -8.864667 N.am        1 UNL1     -0.2772
     10 C         -3.965247   3.799075   -8.574517 C.2        1 UNL1     0.1049
     11 C         -3.702136   3.592282   -7.296929 C.2        1 UNL1     0.0801
     12 C         -2.313755   2.041622   -9.238794 C.ar        1 UNL1     0.0753
     13 C         -2.220977   1.714441   -7.848487 C.ar        1 UNL1     0.0305
     14 C         -2.813361   2.567342   -6.820533 C.2        1 UNL1     0.0924
     15 N         -4.383772   3.97122   -6.202257 N.pl3        1 UNL1     -0.3170
     16 C         -3.583342   3.645912   -5.051717 C.3        1 UNL1     0.1275
     17 N         -2.742171   2.474147   -5.495703 N.2        1 UNL1     -0.2557
     18 C         -2.614455   4.803957   -4.832877 C.3        1 UNL1     0.0016
     19 C         -3.415371   6.089168   -4.697394 C.3        1 UNL1     0.0026
     20 N         -4.331613   5.953077   -3.573557 N.3        1 UNL1     -0.3018
     21 C         -5.263625   4.82723   -3.664057 C.3        1 UNL1     0.0026
     22 C         -4.437658   3.546381   -3.794822 C.3        1 UNL1     0.0016
     23 C         -4.923163   7.213928   -3.172352 C.3        1 UNL1     0.0012
     24 C         -3.836433   8.285433   -2.991656 C.3        1 UNL1     -0.0339
     25 C         -2.74624   8.168081   -4.069508 C.3        1 UNL1     -0.0615
     26 C         -4.465025   9.668013   -2.980567 C.3        1 UNL1     -0.0615
     27 C         -1.64521   1.291054   -10.203063 C.ar        1 UNL1     0.1347
     28 C         -0.8255   0.219692   -9.895965 C.ar        1 UNL1     0.0342
     29 C         -0.788229   -0.114114   -8.525437 C.ar        1 UNL1     0.1435
     30 C         -1.481416   0.606435   -7.55203 C.ar        1 UNL1     0.0774
     31 O         0.049581   -1.063114   -8.053758 O.3        1 UNL1     -0.4436
     32 C         0.15172   -0.790498   -6.648012 C.3        1 UNL1     0.3143
     33 C         -1.106131   -0.019801   -6.301528 C.2        1 UNL1     0.2504
     34 C         0.115471   -0.47059   -10.843691 C.3        1 UNL1     -0.0327
     35 O         0.072991   -2.046946   -5.963618 O.2        1 UNL1     -0.4528
     36 C         2.118245   -1.634663   -2.792649 C.3        1 UNL1     0.0854
     37 C         1.956003   -0.578386   -1.632701 C.3        1 UNL1     0.0236
     38 C         1.79774   -1.205175   -0.165107 C.3        1 UNL1     0.1131
     39 C         0.722708   -2.336347   0.093788 C.3        1 UNL1     0.0200
     40 C         -0.811063   -2.20734   -0.549128 C.3        1 UNL1     0.0661
     41 C         -1.823971   -0.85109   -0.438605 C.3        1 UNL1     0.0091
     42 C         -3.078192   -0.20387   -1.610542 C.3        1 UNL1     0.0661
     43 C         -3.073287   3.260608   -9.612214 C.2        1 UNL1     0.2131
     44 O         -2.91222   3.859299   -10.660243 O.2        1 UNL1     -0.2851
     45 O         -1.824897   1.64854   -11.537737 O.3        1 UNL1     -0.5056
     46 O         -1.681461   0.044725   -5.238191 O.2        1 UNL1     -0.2836
     47 C         -5.017198   -1.656308   -2.727903 C.3        1 UNL1     -0.0566
     48 O         -4.120186   -0.02001   -0.571523 O.3        1 UNL1     -0.3909
     49 C         -1.006305   0.331746   0.030238 C.3        1 UNL1     -0.0577
     50 O         -0.851037   -2.734713   -1.859854 O.3        1 UNL1     -0.3910
     51 O         1.931043   -2.983559   -2.428141 O.3        1 UNL1     -0.3753
     52 C         1.139412   0.672437   -2.094839 C.3        1 UNL1     -0.0564
     53 O         1.997221   -0.207945   0.938553 O.3        1 UNL1     -0.4608
     54 C         3.131616   -0.076621   1.69607 C.2        1 UNL1     0.3042
     55 O         4.039201   -0.896463   1.830185 O.2        1 UNL1     -0.2512
     56 C         3.252604   1.259934   2.371124 C.3        1 UNL1     0.0332
     57 C         1.466912   -3.746591   -0.030903 C.3        1 UNL1     -0.0567
     58 C         1.372754   0.141819   -6.470841 C.3        1 UNL1     0.0210
     59 C         2.713674   -3.418394   -1.317162 C.3        1 UNL1     0.0372
     60 C         1.266551   -1.391049   -3.988655 C.2        1 UNL1     -0.0208
     61 C         0.526954   -2.234849   -4.709586 C.2        1 UNL1     0.0882
     62 H         -3.408598   -0.62994   -3.699136 H        1 UNL1     0.0365
     63 H         -4.337371   0.193985   -5.32048 H        1 UNL1     0.0576
     64 H         -6.90537   1.683635   -4.49398 H        1 UNL1     0.0615
     65 H         -5.415304   1.365712   -7.220973 H        1 UNL1     0.0622
     66 H         3.156522   -1.514119   -3.132499 H        1 UNL1     0.0645
     67 H         2.949698   -0.102817   -1.562257 H        1 UNL1     0.0362
     68 H         2.774447   -1.704041   -0.07184 H        1 UNL1     0.0741
     69 H         0.529996   -2.396636   1.156632 H        1 UNL1     0.0359
     70 H         -1.340179   -2.958806   0.067632 H        1 UNL1     0.0600
     71 H         -2.386477   -1.10441   0.48138 H        1 UNL1     0.0348
     72 H         -2.914007   -1.254267   -1.891656 H        1 UNL1     0.0602
     73 H         1.408777   -0.392844   -4.321231 H        1 UNL1     0.0628
     74 H         0.285324   -3.254807   -4.408688 H        1 UNL1     0.1022
     75 H         -7.730893   4.706386   -8.317131 H        1 UNL1     0.0279
     76 H         -8.939005   3.553927   -7.910188 H        1 UNL1     0.0279
     77 H         -8.056993   4.502106   -6.645946 H        1 UNL1     0.0279
     78 H         -5.477711   4.931292   -8.124021 H        1 UNL1     0.1553
     79 H         -5.06816   4.705067   -6.198582 H        1 UNL1     0.1484
     80 H         -2.018711   4.606588   -3.933487 H        1 UNL1     0.0317
     81 H         -1.907509   4.885341   -5.665496 H        1 UNL1     0.0317
     82 H         -3.957837   6.330362   -5.62339 H        1 UNL1     0.0428
     83 H         -2.70507   6.902161   -4.543888 H        1 UNL1     0.0428
     84 H         -5.885603   4.699941   -2.772568 H        1 UNL1     0.0428
     85 H         -5.98892   4.961428   -4.478461 H        1 UNL1     0.0428
     86 H         -5.142565   2.738832   -3.724406 H        1 UNL1     0.0317
     87 H         -3.809472   3.413184   -2.905588 H        1 UNL1     0.0317
     88 H         -5.605969   7.53937   -3.968065 H        1 UNL1     0.0429
     89 H         -5.52307   7.100598   -2.260188 H        1 UNL1     0.0429
     90 H         -3.36932   8.16088   -2.007529 H        1 UNL1     0.0308
     91 H         -1.936998   8.883777   -3.896279 H        1 UNL1     0.0233
     92 H         -2.332349   7.157238   -4.091867 H        1 UNL1     0.0233
     93 H         -3.132686   8.362638   -5.077299 H        1 UNL1     0.0233
     94 H         -4.644912   9.992877   -1.950062 H        1 UNL1     0.0233
     95 H         -3.789267   10.38945   -3.448371 H        1 UNL1     0.0233
     96 H         -5.417866   9.67747   -3.517197 H        1 UNL1     0.0233
     97 H         1.133871   -0.107174   -10.743583 H        1 UNL1     0.0280
     98 H         0.163509   -1.552618   -10.664347 H        1 UNL1     0.0280
     99 H         -0.212911   -0.297044   -11.881545 H        1 UNL1     0.0280
     100 H         -2.571851   2.197856   -11.698779 H        1 UNL1     0.2922
     101 H         -5.865716   -1.433342   -2.081406 H        1 UNL1     0.0236
     102 H         -4.374209   -2.428604   -2.307061 H        1 UNL1     0.0236
     103 H         -5.462447   -2.119117   -3.624426 H        1 UNL1     0.0236
     104 H         -3.674532   -0.029811   0.298113 H        1 UNL1     0.2098
     105 H         -1.085661   1.211842   -0.602965 H        1 UNL1     0.0234
     106 H         -1.156037   0.603361   1.075098 H        1 UNL1     0.0234
     107 H         0.0   0.0   0.0 H        1 UNL1     0.0234
     108 H         -0.464594   -3.630891   -1.823886 H        1 UNL1     0.2098
     109 H         1.789477   1.496708   -2.419963 H        1 UNL1     0.0234
     110 H         0.413614   0.445386   -2.883134 H        1 UNL1     0.0234
     111 H         0.527647   1.080347   -1.279181 H        1 UNL1     0.0234
     112 H         3.633293   1.129808   3.388715 H        1 UNL1     0.0342
     113 H         3.877443   1.94941   1.805401 H        1 UNL1     0.0342
     114 H         2.24881   1.701168   2.440933 H        1 UNL1     0.0342
     115 H         1.596554   -4.227939   0.948221 H        1 UNL1     0.0234
     116 H         0.95944   -4.460228   -0.683009 H        1 UNL1     0.0234
     117 H         2.514564   -3.66289   -0.367594 H        1 UNL1     0.0234
     118 H         1.078668   1.20473   -6.418494 H        1 UNL1     0.0309
     119 H         1.978628   -0.10578   -5.59345 H        1 UNL1     0.0309
     120 H         2.05376   0.110126   -7.328356 H        1 UNL1     0.0309
     121 H         2.193808   -3.115097   -0.408808 H        1 UNL1     0.0524
     122 H         2.823329   -4.515237   -1.286399 H        1 UNL1     0.0524
     123 H         3.700776   -2.966233   -1.352849 H        1 UNL1     0.0524
@<TRIPOS>BOND
     1     1     2    1
     2     1    42    1
     3     2     3    2
     4     3     4    1
     5     4     5    2
     6     5     7    1
     7     6    75    1
     8     6    76    1
     9     6    77    1
    10     7     9   am
    11     9    10    1
    12    10    11    2
    13    10    43    1
    14    11    14    1
    15    11    15    1
    16    12    13   ar
    17    12    27   ar
    18    12    43    1
    19    13    14    1
    20    13    30   ar
    21    14    17    2
    22    15    16    1
    23    16    17    1
    24    16    18    1
    25    16    22    1
    26    18    19    1
    27    19    20    1
    28    20    21    1
    29    21    22    1
    30    23    24    1
    31    23    88    1
    32    23    89    1
    33    24    25    1
    34    24    26    1
    35    24    90    1
    36    25    91    1
    37    25    92    1
    38    25    93    1
    39    26    94    1
    40    26    95    1
    41    26    96    1
    42    27    28   ar
    43    28    29   ar
    44    29    30   ar
    45    29    31    1
    46    30    33    1
    47    31    32    1
    48    32    33    1
    49    32    35    1
    50    34    97    1
    51    34    98    1
    52    34    99    1
    53    35    61    1
    54    36    37    1
    55    36    60    1
    56    37    38    1
    57    38    39    1
    58    39    40    1
    59    40    41    1
    60    41    42    1
    61    45   100    1
    62    47   101    1
    63    47   102    1
    64    47   103    1
    65    48   104    1
    66    49   105    1
    67    49   106    1
    68    49   107    1
    69    50   108    1
    70    51    59    1
    71    52   109    1
    72    52   110    1
    73    52   111    1
    74    53    54    1
    75    54    55    2
    76    54    56    1
    77    56   112    1
    78    56   113    1
    79    56   114    1
    80    57   115    1
    81    57   116    1
    82    57   117    1
    83    58   118    1
    84    58   119    1
    85    58   120    1
    86    59   121    1
    87    59   122    1
    88    59   123    1
    89    60    61    2
    90     1    47    1
    91     1    62    1
    92     2    63    1
    93     3    64    1
    94     4    65    1
    95     5     6    1
    96     7     8    2
    97     9    78    1
    98    15    79    1
    99    18    80    1
   100    18    81    1
   101    19    82    1
   102    19    83    1
   103    20    23    1
   104    21    84    1
   105    21    85    1
   106    22    86    1
   107    22    87    1
   108    27    45    1
   109    28    34    1
   110    32    58    1
   111    33    46    2
   112    36    51    1
   113    36    66    1
   114    37    52    1
   115    37    67    1
   116    38    53    1
   117    38    68    1
   118    42    48    1
   119    42    72    1
   120    43    44    2
   121    60    73    1
   122    61    74    1
   123    39    69    1
   124    39    57    1
   125    40    70    1
   126    40    50    1
   127    41    71    1
   128    41    49    1
