@<TRIPOS>MOLECULE
*****
 123 128 0 0 0
SMALL
GASTEIGER

@<TRIPOS>ATOM
     1 C         -1.290607   -2.614679   -4.373074 C.3        1 UNL1     0.0009
     2 C         -0.622617   -3.5355   -5.836944 C.2        1 UNL1     -0.0787
     3 C         -0.102783   -3.539164   -7.188168 C.2        1 UNL1     -0.0649
     4 C         0.525113   -4.848941   -8.057988 C.2        1 UNL1     -0.0542
     5 C         1.337609   -5.232864   -9.15322 C.2        1 UNL1     0.0115
     6 C         2.083731   -4.706037   -10.409833 C.3        1 UNL1     -0.0348
     7 C         1.900031   -6.735177   -9.214256 C.2        1 UNL1     0.2441
     8 O         1.416233   -7.598098   -9.933862 O.2        1 UNL1     -0.2702
     9 N         3.143   -6.924739   -8.58557 N.am        1 UNL1     -0.2772
     10 C         2.967216   -7.2184   -7.252834 C.2        1 UNL1     0.1049
     11 C         2.791178   -6.18639   -6.447733 C.2        1 UNL1     0.0801
     12 C         1.679077   -8.698035   -5.700831 C.ar        1 UNL1     0.0753
     13 C         1.341892   -7.511313   -4.975155 C.ar        1 UNL1     0.0305
     14 C         1.995946   -6.234091   -5.250775 C.2        1 UNL1     0.0924
     15 N         2.961915   -4.873049   -6.676887 N.pl3        1 UNL1     -0.3170
     16 C         2.803863   -4.184143   -5.423618 C.3        1 UNL1     0.1275
     17 N         1.882571   -5.068832   -4.619709 N.2        1 UNL1     -0.2557
     18 C         4.153652   -4.222034   -4.713452 C.3        1 UNL1     0.0016
     19 C         5.204015   -3.61958   -5.632896 C.3        1 UNL1     0.0026
     20 N         4.817797   -2.251971   -5.951498 N.3        1 UNL1     -0.3018
     21 C         3.504228   -2.107848   -6.582476 C.3        1 UNL1     0.0026
     22 C         2.463975   -2.715368   -5.639775 C.3        1 UNL1     0.0016
     23 C         5.886807   -1.49369   -6.570266 C.3        1 UNL1     0.0012
     24 C         6.996835   -1.196424   -5.549861 C.3        1 UNL1     -0.0339
     25 C         7.650658   0.170216   -5.812286 C.3        1 UNL1     -0.0615
     26 C         6.44504   -1.290223   -4.137946 C.3        1 UNL1     -0.0615
     27 C         1.140687   -9.934522   -5.352471 C.ar        1 UNL1     0.1347
     28 C         0.288938   -10.114777   -4.277259 C.ar        1 UNL1     0.0342
     29 C         -0.067417   -8.924927   -3.607608 C.ar        1 UNL1     0.1435
     30 C         0.435649   -7.674172   -3.967824 C.ar        1 UNL1     0.0774
     31 O         -0.801075   -8.947164   -2.473475 O.3        1 UNL1     -0.4436
     32 C         -0.554542   -7.674322   -1.857059 C.3        1 UNL1     0.3143
     33 C         -0.119564   -6.764169   -2.987824 C.2        1 UNL1     0.2504
     34 C         -0.125992   -11.436366   -3.693019 C.3        1 UNL1     -0.0327
     35 O         -1.813191   -7.179327   -1.383737 O.2        1 UNL1     -0.4528
     36 C         -1.017554   -5.051687   1.657348 C.3        1 UNL1     0.0854
     37 C         -0.0668   -3.798854   1.775656 C.3        1 UNL1     0.0236
     38 C         -0.757339   -2.480368   2.372729 C.3        1 UNL1     0.1131
     39 C         -2.121011   -1.962498   1.760783 C.3        1 UNL1     0.0200
     40 C         -2.345005   -1.924322   0.108267 C.3        1 UNL1     0.0661
     41 C         -1.27591   -1.251739   -1.02411 C.3        1 UNL1     0.0091
     42 C         -0.913942   -1.739926   -2.755022 C.3        1 UNL1     0.0661
     43 C         2.690523   -8.583267   -6.780676 C.2        1 UNL1     0.2131
     44 O         3.341786   -9.524734   -7.195686 O.2        1 UNL1     -0.2851
     45 O         1.484705   -11.032426   -6.138408 O.3        1 UNL1     -0.5056
     46 O         -0.22738   -5.561109   -3.070749 O.2        1 UNL1     -0.2836
     47 C         -2.755328   -2.172846   -4.636428 C.3        1 UNL1     -0.0566
     48 O         -1.017393   -0.359306   -3.286344 O.3        1 UNL1     -0.3909
     49 C         0.05403   -0.99925   -0.349572 C.3        1 UNL1     -0.0577
     50 O         -2.826643   -3.167502   -0.361042 O.3        1 UNL1     -0.3910
     51 O         -2.382294   -4.81646   1.921136 O.3        1 UNL1     -0.3753
     52 C         0.964505   -3.738199   0.601909 C.3        1 UNL1     -0.0564
     53 O         0.22476   -1.429293   2.800569 O.3        1 UNL1     -0.4608
     54 C         0.075003   -0.591139   3.874348 C.2        1 UNL1     0.3042
     55 O         -0.25628   0.593669   3.856491 O.2        1 UNL1     -0.2512
     56 C         0.2998   -1.264079   5.198483 C.3        1 UNL1     0.0332
     57 C         -3.30664   -2.548496   2.660263 C.3        1 UNL1     -0.0567
     58 C         0.638098   -7.878383   -0.893993 C.3        1 UNL1     0.0210
     59 C         -2.812189   -5.186554   3.230368 C.3        1 UNL1     0.0372
     60 C         -0.94971   -5.771995   0.356689 C.2        1 UNL1     -0.0208
     61 C         -1.924324   -6.241857   -0.423119 C.2        1 UNL1     0.0882
     62 H         -1.343569   -3.563041   -3.82488 H        1 UNL1     0.0365
     63 H         -0.718355   -4.56647   -5.489952 H        1 UNL1     0.0576
     64 H         0.084791   -2.61054   -7.731842 H        1 UNL1     0.0615
     65 H         0.2169   -5.720894   -7.474735 H        1 UNL1     0.0622
     66 H         -0.6408   -5.756345   2.41204 H        1 UNL1     0.0645
     67 H         0.631286   -4.067779   2.587392 H        1 UNL1     0.0362
     68 H         -1.009444   -2.844922   3.380234 H        1 UNL1     0.0741
     69 H         -2.257959   -0.927014   2.042612 H        1 UNL1     0.0359
     70 H         -3.219904   -1.248886   0.049983 H        1 UNL1     0.0600
     71 H         -1.68469   -0.224315   -1.089353 H        1 UNL1     0.0348
     72 H         -1.885101   -2.193311   -2.508837 H        1 UNL1     0.0602
     73 H         0.063008   -6.004688   0.138731 H        1 UNL1     0.0628
     74 H         -2.981078   -6.001407   -0.301901 H        1 UNL1     0.1022
     75 H         1.420029   -4.035738   -11.007522 H        1 UNL1     0.0279
     76 H         2.952033   -4.076148   -10.229943 H        1 UNL1     0.0279
     77 H         2.302644   -5.500235   -11.138549 H        1 UNL1     0.0279
     78 H         3.688613   -6.067232   -8.640929 H        1 UNL1     0.1553
     79 H         3.509323   -4.506258   -7.433684 H        1 UNL1     0.1484
     80 H         4.078133   -3.664464   -3.772082 H        1 UNL1     0.0317
     81 H         4.427688   -5.248842   -4.448458 H        1 UNL1     0.0317
     82 H         5.335663   -4.216893   -6.547116 H        1 UNL1     0.0428
     83 H         6.158859   -3.658208   -5.107699 H        1 UNL1     0.0428
     84 H         3.204295   -1.066898   -6.738284 H        1 UNL1     0.0428
     85 H         3.484753   -2.544839   -7.590433 H        1 UNL1     0.0428
     86 H         1.508938   -2.474485   -6.068573 H        1 UNL1     0.0317
     87 H         2.458821   -2.171762   -4.687114 H        1 UNL1     0.0317
     88 H         6.310807   -2.100324   -7.381138 H        1 UNL1     0.0429
     89 H         5.508499   -0.568865   -7.02453 H        1 UNL1     0.0429
     90 H         7.768285   -1.97222   -5.622104 H        1 UNL1     0.0308
     91 H         6.897628   0.943808   -5.990061 H        1 UNL1     0.0233
     92 H         8.277408   0.467075   -4.968089 H        1 UNL1     0.0233
     93 H         8.307052   0.157341   -6.690816 H        1 UNL1     0.0233
     94 H         7.077932   -0.723311   -3.446647 H        1 UNL1     0.0233
     95 H         5.438836   -0.86344   -4.100908 H        1 UNL1     0.0233
     96 H         6.401301   -2.327643   -3.794703 H        1 UNL1     0.0233
     97 H         0.143293   -11.520845   -2.644411 H        1 UNL1     0.0280
     98 H         -1.212772   -11.585422   -3.737163 H        1 UNL1     0.0280
     99 H         0.367119   -12.254299   -4.243403 H        1 UNL1     0.0280
     100 H         1.389721   -10.895994   -7.064684 H        1 UNL1     0.2922
     101 H         -3.438444   -2.813363   -4.078981 H        1 UNL1     0.0236
     102 H         -3.006547   -2.130977   -5.69573 H        1 UNL1     0.0236
     103 H         -2.955171   -1.155782   -4.259815 H        1 UNL1     0.0236
     104 H         -1.957062   -0.194338   -3.497951 H        1 UNL1     0.2098
     105 H         0.25287   -1.640547   0.50542 H        1 UNL1     0.0234
     106 H         0.911416   -0.990085   -1.022425 H        1 UNL1     0.0234
     107 H         0.0   0.0   0.0 H        1 UNL1     0.0234
     108 H         -2.723229   -3.170786   -1.332156 H        1 UNL1     0.2098
     109 H         1.837685   -3.117573   0.847044 H        1 UNL1     0.0234
     110 H         1.299205   -4.727419   0.271511 H        1 UNL1     0.0234
     111 H         0.525559   -3.290789   -0.29981 H        1 UNL1     0.0234
     112 H         0.144896   -0.547762   6.011035 H        1 UNL1     0.0342
     113 H         -0.333176   -2.14113   5.324841 H        1 UNL1     0.0342
     114 H         1.345285   -1.599361   5.239842 H        1 UNL1     0.0342
     115 H         -4.291957   -2.220696   2.301257 H        1 UNL1     0.0234
     116 H         -3.323788   -3.638706   2.716807 H        1 UNL1     0.0234
     117 H         -3.313248   -2.153878   3.690882 H        1 UNL1     0.0234
     118 H         1.584018   -8.051739   -1.436385 H        1 UNL1     0.0309
     119 H         0.773177   -7.046749   -0.195179 H        1 UNL1     0.0309
     120 H         0.531727   -8.777939   -0.277883 H        1 UNL1     0.0309
     121 H         -3.879124   -5.401768   3.178504 H        1 UNL1     0.0524
     122 H         -2.30729   -6.096652   3.594837 H        1 UNL1     0.0524
     123 H         -2.626803   -4.37636   3.929876 H        1 UNL1     0.0524
@<TRIPOS>BOND
     1     1     2    1
     2     1    42    1
     3     2     3    2
     4     3     4    1
     5     4     5    2
     6     5     7    1
     7     6    75    1
     8     6    76    1
     9     6    77    1
    10     7     9   am
    11     9    10    1
    12    10    11    2
    13    10    43    1
    14    11    14    1
    15    11    15    1
    16    12    13   ar
    17    12    27   ar
    18    12    43    1
    19    13    14    1
    20    13    30   ar
    21    14    17    2
    22    15    16    1
    23    16    17    1
    24    16    18    1
    25    16    22    1
    26    18    19    1
    27    19    20    1
    28    20    21    1
    29    21    22    1
    30    23    24    1
    31    23    88    1
    32    23    89    1
    33    24    25    1
    34    24    26    1
    35    24    90    1
    36    25    91    1
    37    25    92    1
    38    25    93    1
    39    26    94    1
    40    26    95    1
    41    26    96    1
    42    27    28   ar
    43    28    29   ar
    44    29    30   ar
    45    29    31    1
    46    30    33    1
    47    31    32    1
    48    32    33    1
    49    32    35    1
    50    34    97    1
    51    34    98    1
    52    34    99    1
    53    35    61    1
    54    36    37    1
    55    36    60    1
    56    37    38    1
    57    38    39    1
    58    39    40    1
    59    40    41    1
    60    41    42    1
    61    45   100    1
    62    47   101    1
    63    47   102    1
    64    47   103    1
    65    48   104    1
    66    49   105    1
    67    49   106    1
    68    49   107    1
    69    50   108    1
    70    51    59    1
    71    52   109    1
    72    52   110    1
    73    52   111    1
    74    53    54    1
    75    54    55    2
    76    54    56    1
    77    56   112    1
    78    56   113    1
    79    56   114    1
    80    57   115    1
    81    57   116    1
    82    57   117    1
    83    58   118    1
    84    58   119    1
    85    58   120    1
    86    59   121    1
    87    59   122    1
    88    59   123    1
    89    60    61    2
    90     1    47    1
    91     1    62    1
    92     2    63    1
    93     3    64    1
    94     4    65    1
    95     5     6    1
    96     7     8    2
    97     9    78    1
    98    15    79    1
    99    18    80    1
   100    18    81    1
   101    19    82    1
   102    19    83    1
   103    20    23    1
   104    21    84    1
   105    21    85    1
   106    22    86    1
   107    22    87    1
   108    27    45    1
   109    28    34    1
   110    32    58    1
   111    33    46    2
   112    36    51    1
   113    36    66    1
   114    37    52    1
   115    37    67    1
   116    38    53    1
   117    38    68    1
   118    42    48    1
   119    42    72    1
   120    43    44    2
   121    60    73    1
   122    61    74    1
   123    39    69    1
   124    39    57    1
   125    40    70    1
   126    40    50    1
   127    41    71    1
   128    41    49    1
