@<TRIPOS>MOLECULE
*****
 123 128 0 0 0
SMALL
GASTEIGER

@<TRIPOS>ATOM
     1 C         4.368032   2.455302   -1.589339 C.3        1 UNL1     0.0009
     2 C         5.538166   2.49321   -3.026831 C.2        1 UNL1     -0.0787
     3 C         6.855538   2.260847   -3.580532 C.2        1 UNL1     -0.0649
     4 C         7.343993   2.395976   -5.195929 C.2        1 UNL1     -0.0542
     5 C         8.321879   2.017793   -6.148712 C.2        1 UNL1     0.0115
     6 C         9.711399   1.345678   -6.324269 C.3        1 UNL1     -0.0348
     7 C         7.978079   2.154151   -7.710824 C.2        1 UNL1     0.2441
     8 O         8.396487   3.069019   -8.406869 O.2        1 UNL1     -0.2702
     9 N         7.38266   1.017152   -8.284289 N.am        1 UNL1     -0.2772
     10 C         6.014697   1.069899   -8.14567 C.2        1 UNL1     0.1049
     11 C         5.53073   0.65864   -6.987712 C.2        1 UNL1     0.0801
     12 C         4.043687   2.573635   -8.479185 C.ar        1 UNL1     0.0753
     13 C         3.672132   2.255043   -7.134174 C.ar        1 UNL1     0.0305
     14 C         4.332914   1.184492   -6.390978 C.2        1 UNL1     0.0924
     15 N         6.133867   -0.003608   -5.985624 N.pl3        1 UNL1     -0.3170
     16 C         5.123767   -0.363807   -5.026349 C.3        1 UNL1     0.1275
     17 N         4.056649   0.691248   -5.187103 N.2        1 UNL1     -0.2557
     18 C         4.498933   -1.673388   -5.497815 C.3        1 UNL1     0.0016
     19 C         5.602195   -2.706004   -5.665473 C.3        1 UNL1     0.0026
     20 N         6.279367   -2.878687   -4.387722 N.3        1 UNL1     -0.3018
     21 C         6.860553   -1.659304   -3.822305 C.3        1 UNL1     0.0026
     22 C         5.734076   -0.637552   -3.65809 C.3        1 UNL1     0.0016
     23 C         7.140341   -4.044246   -4.358764 C.3        1 UNL1     0.0012
     24 C         8.333257   -3.809473   -3.41877 C.3        1 UNL1     -0.0339
     25 C         9.600019   -4.514542   -3.93087 C.3        1 UNL1     -0.0615
     26 C         8.560856   -2.319955   -3.228206 C.3        1 UNL1     -0.0615
     27 C         3.330566   3.511563   -9.222063 C.ar        1 UNL1     0.1347
     28 C         2.20861   4.163971   -8.742867 C.ar        1 UNL1     0.0342
     29 C         1.890634   3.870715   -7.399715 C.ar        1 UNL1     0.1435
     30 C         2.617464   2.960365   -6.63147 C.ar        1 UNL1     0.0774
     31 O         0.763217   4.34167   -6.823401 O.3        1 UNL1     -0.4436
     32 C         0.549237   3.484779   -5.691666 C.3        1 UNL1     0.3143
     33 C         1.912792   2.908699   -5.367534 C.2        1 UNL1     0.2504
     34 C         1.251419   4.987141   -9.559124 C.3        1 UNL1     -0.0327
     35 O         0.17659   4.320542   -4.588994 O.2        1 UNL1     -0.4528
     36 C         -2.086715   2.203672   -2.397099 C.3        1 UNL1     0.0854
     37 C         -1.795474   0.81149   -1.715535 C.3        1 UNL1     0.0236
     38 C         -2.023462   0.775048   -0.128577 C.3        1 UNL1     0.1131
     39 C         -1.356058   1.879701   0.786074 C.3        1 UNL1     0.0200
     40 C         0.225446   2.344918   0.531407 C.3        1 UNL1     0.0661
     41 C         1.553452   1.302523   0.365813 C.3        1 UNL1     0.0091
     42 C         3.087972   1.478164   -0.624035 C.3        1 UNL1     0.0661
     43 C         5.159117   1.806873   -9.087586 C.2        1 UNL1     0.2131
     44 O         5.31876   1.689804   -10.289063 O.2        1 UNL1     -0.2851
     45 O         3.785519   3.797194   -10.507703 O.3        1 UNL1     -0.5056
     46 O         2.330906   2.516228   -4.301231 O.2        1 UNL1     -0.2836
     47 C         4.675173   3.622573   -0.613058 C.3        1 UNL1     -0.0566
     48 O         3.986191   1.083913   0.488118 O.3        1 UNL1     -0.3909
     49 C         1.044779   -0.104642   0.145282 C.3        1 UNL1     -0.0577
     50 O         0.295691   3.374178   -0.434726 O.3        1 UNL1     -0.3910
     51 O         -2.338272   3.278341   -1.520037 O.3        1 UNL1     -0.3753
     52 C         -0.604686   0.065605   -2.40156 C.3        1 UNL1     -0.0564
     53 O         -2.084613   -0.613471   0.437639 O.3        1 UNL1     -0.4608
     54 C         -1.570304   -1.002436   1.646821 C.2        1 UNL1     0.3042
     55 O         -0.877421   -1.992022   1.880217 O.2        1 UNL1     -0.2512
     56 C         -1.872784   -0.045702   2.764801 C.3        1 UNL1     0.0332
     57 C         -2.442088   3.029546   1.023918 C.3        1 UNL1     -0.0567
     58 C         -0.372782   2.341836   -6.176528 C.3        1 UNL1     0.0210
     59 C         -2.543048   4.537799   -2.15855 C.3        1 UNL1     0.0372
     60 C         -1.044628   2.665561   -3.354111 C.2        1 UNL1     -0.0208
     61 C         -0.480085   3.864403   -3.505156 C.2        1 UNL1     0.0882
     62 H         3.569658   2.805606   -2.254619 H        1 UNL1     0.0365
     63 H         4.906644   2.95046   -3.791405 H        1 UNL1     0.0576
     64 H         7.65049   1.797895   -2.991604 H        1 UNL1     0.0615
     65 H         6.521501   2.936163   -5.672572 H        1 UNL1     0.0622
     66 H         -2.992131   2.033501   -2.996524 H        1 UNL1     0.0645
     67 H         -2.615264   0.162749   -2.069991 H        1 UNL1     0.0362
     68 H         -3.104157   0.980891   -0.093225 H        1 UNL1     0.0741
     69 H         -1.336352   1.521176   1.806603 H        1 UNL1     0.0359
     70 H         0.43181   2.853302   1.492667 H        1 UNL1     0.0600
     71 H         1.889787   1.249024   1.419841 H        1 UNL1     0.0348
     72 H         2.675504   2.492397   -0.521478 H        1 UNL1     0.0602
     73 H         -0.853326   1.896173   -4.060294 H        1 UNL1     0.0628
     74 H         -0.578729   4.686313   -2.795247 H        1 UNL1     0.1022
     75 H         9.748159   0.764474   -7.2771 H        1 UNL1     0.0279
     76 H         10.564158   2.013433   -6.424135 H        1 UNL1     0.0279
     77 H         9.898933   0.556448   -5.58154 H        1 UNL1     0.0279
     78 H         7.707363   0.181294   -7.802639 H        1 UNL1     0.1553
     79 H         6.989631   -0.516585   -6.092653 H        1 UNL1     0.1484
     80 H         3.753784   -1.999259   -4.762066 H        1 UNL1     0.0317
     81 H         3.965056   -1.533903   -6.44395 H        1 UNL1     0.0317
     82 H         6.312726   -2.418233   -6.454298 H        1 UNL1     0.0428
     83 H         5.134963   -3.631348   -6.003824 H        1 UNL1     0.0428
     84 H         7.292722   -1.800174   -2.826716 H        1 UNL1     0.0428
     85 H         7.699284   -1.287721   -4.427098 H        1 UNL1     0.0428
     86 H         6.166876   0.187027   -3.122608 H        1 UNL1     0.0317
     87 H         4.977551   -1.022302   -2.9633 H        1 UNL1     0.0317
     88 H         6.555712   -4.891297   -3.976653 H        1 UNL1     0.0429
     89 H         7.478246   -4.315551   -5.367222 H        1 UNL1     0.0429
     90 H         8.090946   -4.204966   -2.425249 H        1 UNL1     0.0308
     91 H         9.748267   -4.338613   -5.000531 H        1 UNL1     0.0233
     92 H         10.481433   -4.169699   -3.385158 H        1 UNL1     0.0233
     93 H         9.558953   -5.601411   -3.789925 H        1 UNL1     0.0233
     94 H         9.590543   -2.13359   -2.904404 H        1 UNL1     0.0233
     95 H         8.404547   -1.794057   -4.17423 H        1 UNL1     0.0233
     96 H         7.882158   -1.905393   -2.477556 H        1 UNL1     0.0233
     97 H         1.157844   5.999869   -9.178526 H        1 UNL1     0.0280
     98 H         1.577394   5.087191   -10.602669 H        1 UNL1     0.0280
     99 H         0.254018   4.518097   -9.542226 H        1 UNL1     0.0280
     100 H         3.768132   3.066515   -11.100517 H        1 UNL1     0.2922
     101 H         3.783266   4.234342   -0.479278 H        1 UNL1     0.0236
     102 H         5.537507   4.216882   -0.913323 H        1 UNL1     0.0236
     103 H         4.921447   3.26166   0.399505 H        1 UNL1     0.0236
     104 H         3.627118   1.473181   1.309402 H        1 UNL1     0.2098
     105 H         1.454947   -0.598092   -0.732261 H        1 UNL1     0.0234
     106 H         1.119174   -0.75728   1.015027 H        1 UNL1     0.0234
     107 H         -0.0   0.0   0.0 H        1 UNL1     0.0234
     108 H         1.229181   3.448683   -0.711881 H        1 UNL1     0.2098
     109 H         -0.802707   -0.147931   -3.461231 H        1 UNL1     0.0234
     110 H         0.348178   0.597405   -2.306787 H        1 UNL1     0.0234
     111 H         -0.413481   -0.908836   -1.932675 H        1 UNL1     0.0234
     112 H         -0.939991   0.310493   3.212426 H        1 UNL1     0.0342
     113 H         -2.490924   0.787786   2.434584 H        1 UNL1     0.0342
     114 H         -2.432099   -0.58863   3.539115 H        1 UNL1     0.0342
     115 H         -2.338945   3.489786   2.016253 H        1 UNL1     0.0234
     116 H         -2.408013   3.832186   0.284555 H        1 UNL1     0.0234
     117 H         -3.478439   2.653031   1.070321 H        1 UNL1     0.0234
     118 H         -0.275233   1.436992   -5.551429 H        1 UNL1     0.0309
     119 H         -1.427217   2.631701   -6.224975 H        1 UNL1     0.0309
     120 H         -0.109758   1.986035   -7.178691 H        1 UNL1     0.0309
     121 H         -2.269115   5.31647   -1.447221 H        1 UNL1     0.0524
     122 H         -1.906077   4.663437   -3.049908 H        1 UNL1     0.0524
     123 H         -3.583702   4.64627   -2.450725 H        1 UNL1     0.0524
@<TRIPOS>BOND
     1     1     2    1
     2     1    42    1
     3     2     3    2
     4     3     4    1
     5     4     5    2
     6     5     7    1
     7     6    75    1
     8     6    76    1
     9     6    77    1
    10     7     9   am
    11     9    10    1
    12    10    11    2
    13    10    43    1
    14    11    14    1
    15    11    15    1
    16    12    13   ar
    17    12    27   ar
    18    12    43    1
    19    13    14    1
    20    13    30   ar
    21    14    17    2
    22    15    16    1
    23    16    17    1
    24    16    18    1
    25    16    22    1
    26    18    19    1
    27    19    20    1
    28    20    21    1
    29    21    22    1
    30    23    24    1
    31    23    88    1
    32    23    89    1
    33    24    25    1
    34    24    26    1
    35    24    90    1
    36    25    91    1
    37    25    92    1
    38    25    93    1
    39    26    94    1
    40    26    95    1
    41    26    96    1
    42    27    28   ar
    43    28    29   ar
    44    29    30   ar
    45    29    31    1
    46    30    33    1
    47    31    32    1
    48    32    33    1
    49    32    35    1
    50    34    97    1
    51    34    98    1
    52    34    99    1
    53    35    61    1
    54    36    37    1
    55    36    60    1
    56    37    38    1
    57    38    39    1
    58    39    40    1
    59    40    41    1
    60    41    42    1
    61    45   100    1
    62    47   101    1
    63    47   102    1
    64    47   103    1
    65    48   104    1
    66    49   105    1
    67    49   106    1
    68    49   107    1
    69    50   108    1
    70    51    59    1
    71    52   109    1
    72    52   110    1
    73    52   111    1
    74    53    54    1
    75    54    55    2
    76    54    56    1
    77    56   112    1
    78    56   113    1
    79    56   114    1
    80    57   115    1
    81    57   116    1
    82    57   117    1
    83    58   118    1
    84    58   119    1
    85    58   120    1
    86    59   121    1
    87    59   122    1
    88    59   123    1
    89    60    61    2
    90     1    47    1
    91     1    62    1
    92     2    63    1
    93     3    64    1
    94     4    65    1
    95     5     6    1
    96     7     8    2
    97     9    78    1
    98    15    79    1
    99    18    80    1
   100    18    81    1
   101    19    82    1
   102    19    83    1
   103    20    23    1
   104    21    84    1
   105    21    85    1
   106    22    86    1
   107    22    87    1
   108    27    45    1
   109    28    34    1
   110    32    58    1
   111    33    46    2
   112    36    51    1
   113    36    66    1
   114    37    52    1
   115    37    67    1
   116    38    53    1
   117    38    68    1
   118    42    48    1
   119    42    72    1
   120    43    44    2
   121    60    73    1
   122    61    74    1
   123    39    69    1
   124    39    57    1
   125    40    70    1
   126    40    50    1
   127    41    71    1
   128    41    49    1
