@<TRIPOS>MOLECULE
*****
 123 128 0 0 0
SMALL
GASTEIGER

@<TRIPOS>ATOM
     1 C         5.168608   1.746277   0.485056 C.3        1 UNL1     0.0009
     2 C         6.604849   2.551174   -0.367228 C.2        1 UNL1     -0.0787
     3 C         7.885988   2.451954   -1.034226 C.2        1 UNL1     -0.0649
     4 C         8.763317   3.686215   -1.791359 C.2        1 UNL1     -0.0542
     5 C         9.782531   3.977825   -2.73117 C.2        1 UNL1     0.0115
     6 C         10.909501   3.351326   -3.597635 C.3        1 UNL1     -0.0348
     7 C         9.878039   5.460715   -3.338546 C.2        1 UNL1     0.2441
     8 O         10.702751   6.282117   -2.96215 O.2        1 UNL1     -0.2702
     9 N         9.126721   5.667475   -4.508556 N.am        1 UNL1     -0.2772
     10 C         7.844537   6.055006   -4.19368 C.2        1 UNL1     0.1049
     11 C         6.998533   5.084199   -3.900368 C.2        1 UNL1     0.0801
     12 C         6.548462   7.663088   -2.782441 C.ar        1 UNL1     0.0753
     13 C         5.789262   6.535812   -2.333581 C.ar        1 UNL1     0.0305
     14 C         5.904828   5.229713   -2.978407 C.2        1 UNL1     0.0924
     15 N         7.120277   3.755073   -4.058891 N.pl3        1 UNL1     -0.3170
     16 C         5.850422   3.156747   -3.743093 C.3        1 UNL1     0.1275
     17 N         5.215545   4.112833   -2.763014 N.2        1 UNL1     -0.2557
     18 C         4.996303   3.215617   -5.005914 C.3        1 UNL1     0.0016
     19 C         5.749652   2.530533   -6.134946 C.3        1 UNL1     0.0026
     20 N         6.019454   1.152487   -5.748647 N.3        1 UNL1     -0.3018
     21 C         6.784003   0.99233   -4.510026 C.3        1 UNL1     0.0026
     22 C         6.006784   1.683851   -3.388587 C.3        1 UNL1     0.0016
     23 C         6.462377   0.332133   -6.858369 C.3        1 UNL1     0.0012
     24 C         5.305785   0.082766   -7.839118 C.3        1 UNL1     -0.0339
     25 C         5.38066   1.028507   -9.049087 C.3        1 UNL1     -0.0615
     26 C         5.291872   -1.374066   -8.268336 C.3        1 UNL1     -0.0615
     27 C         6.345037   8.931172   -2.243276 C.ar        1 UNL1     0.1347
     28 C         5.387115   9.201736   -1.282428 C.ar        1 UNL1     0.0342
     29 C         4.685422   8.067903   -0.820678 C.ar        1 UNL1     0.1435
     30 C         4.903656   6.785494   -1.325675 C.ar        1 UNL1     0.0774
     31 O         3.645374   8.182474   0.033828 O.3        1 UNL1     -0.4436
     32 C         2.922889   6.949967   -0.106939 C.3        1 UNL1     0.3143
     33 C         3.935103   5.95604   -0.639616 C.2        1 UNL1     0.2504
     34 C         4.941465   10.56831   -0.842007 C.3        1 UNL1     -0.0327
     35 O         2.563382   6.514152   1.209902 O.2        1 UNL1     -0.4528
     36 C         -0.681109   4.583497   0.817548 C.3        1 UNL1     0.0854
     37 C         -0.988021   3.322605   -0.078821 C.3        1 UNL1     0.0236
     38 C         -1.588434   2.062299   0.710405 C.3        1 UNL1     0.1131
     39 C         -0.861609   1.531662   2.011336 C.3        1 UNL1     0.0200
     40 C         0.799547   1.385248   2.050855 C.3        1 UNL1     0.0661
     41 C         1.757288   0.615285   0.881454 C.3        1 UNL1     0.0091
     42 C         3.464482   0.976627   0.315483 C.3        1 UNL1     0.0661
     43 C         7.497226   7.454282   -3.904272 C.2        1 UNL1     0.2131
     44 O         7.896844   8.351764   -4.623695 O.2        1 UNL1     -0.2851
     45 O         7.157382   9.9656   -2.70316 O.3        1 UNL1     -0.5056
     46 O         3.950582   4.752566   -0.508215 O.2        1 UNL1     -0.2836
     47 C         5.566236   1.317353   1.923075 C.3        1 UNL1     -0.0566
     48 O         3.912373   -0.434676   0.397555 O.3        1 UNL1     -0.3909
     49 C         0.921686   0.382482   -0.357523 C.3        1 UNL1     -0.0577
     50 O         1.400808   2.602996   2.442385 O.3        1 UNL1     -0.3910
     51 O         -0.803849   4.394633   2.2092 O.3        1 UNL1     -0.3753
     52 C         0.055146   3.160956   -1.232347 C.3        1 UNL1     -0.0564
     53 O         -2.192533   1.023159   -0.188249 O.3        1 UNL1     -0.4608
     54 C         -2.414804   -0.286635   0.147854 C.2        1 UNL1     0.3042
     55 O         -1.842111   -1.279827   -0.298723 O.2        1 UNL1     -0.2512
     56 C         -3.444907   -0.464178   1.226779 C.3        1 UNL1     0.0332
     57 C         -1.580961   2.20172   3.272974 C.3        1 UNL1     -0.0567
     58 C         1.846695   7.195056   -1.190115 C.3        1 UNL1     0.0210
     59 C         -1.115639   5.574203   2.948974 C.3        1 UNL1     0.0372
     60 C         0.647984   5.211741   0.585207 C.2        1 UNL1     -0.0208
     61 C         1.562061   5.646949   1.453425 C.2        1 UNL1     0.0882
     62 H         4.69331   2.730753   0.572291 H        1 UNL1     0.0365
     63 H         6.33928   3.605173   -0.262213 H        1 UNL1     0.0576
     64 H         8.34289   1.484739   -1.25523 H        1 UNL1     0.0615
     65 H         8.277091   4.602061   -1.444526 H        1 UNL1     0.0622
     66 H         -1.42568   5.33026   0.507701 H        1 UNL1     0.0645
     67 H         -1.854041   3.632108   -0.689375 H        1 UNL1     0.0362
     68 H         -2.5349   2.499876   1.062897 H        1 UNL1     0.0741
     69 H         -1.193473   0.520849   2.207631 H        1 UNL1     0.0359
     70 H         0.911889   0.725333   2.932304 H        1 UNL1     0.0600
     71 H         1.800767   -0.405673   1.308903 H        1 UNL1     0.0348
     72 H         3.359891   1.465419   1.295003 H        1 UNL1     0.0602
     73 H         0.7649   5.408365   -0.451576 H        1 UNL1     0.0628
     74 H         1.545524   5.436874   2.523393 H        1 UNL1     0.1022
     75 H         10.934909   2.242714   -3.46585 H        1 UNL1     0.0279
     76 H         10.808234   3.456852   -4.675446 H        1 UNL1     0.0279
     77 H         11.91588   3.633482   -3.255158 H        1 UNL1     0.0279
     78 H         9.0637   4.797275   -5.032825 H        1 UNL1     0.1553
     79 H         7.784668   3.326387   -4.676747 H        1 UNL1     0.1484
     80 H         4.03496   2.725309   -4.810503 H        1 UNL1     0.0317
     81 H         4.76997   4.252345   -5.277243 H        1 UNL1     0.0317
     82 H         6.680342   3.061196   -6.384198 H        1 UNL1     0.0428
     83 H         5.123594   2.585529   -7.026055 H        1 UNL1     0.0428
     84 H         6.904084   -0.050519   -4.200415 H        1 UNL1     0.0428
     85 H         7.814185   1.359748   -4.615126 H        1 UNL1     0.0428
     86 H         6.524026   1.433703   -2.480911 H        1 UNL1     0.0317
     87 H         5.027213   1.206813   -3.262209 H        1 UNL1     0.0317
     88 H         7.258178   0.873212   -7.38679 H        1 UNL1     0.0429
     89 H         6.894829   -0.613682   -6.507381 H        1 UNL1     0.0429
     90 H         4.35373   0.251818   -7.32218 H        1 UNL1     0.0308
     91 H         6.335075   0.927445   -9.574425 H        1 UNL1     0.0233
     92 H         4.564222   0.828359   -9.746925 H        1 UNL1     0.0233
     93 H         5.285785   2.08266   -8.761695 H        1 UNL1     0.0233
     94 H         4.598832   -1.514762   -9.104838 H        1 UNL1     0.0233
     95 H         6.288874   -1.674712   -8.602344 H        1 UNL1     0.0233
     96 H         4.981846   -2.028556   -7.448888 H        1 UNL1     0.0233
     97 H         4.142577   10.519499   -0.108096 H        1 UNL1     0.0280
     98 H         5.752601   11.134694   -0.366061 H        1 UNL1     0.0280
     99 H         4.575986   11.135941   -1.713394 H        1 UNL1     0.0280
     100 H         6.690432   10.71681   -3.024506 H        1 UNL1     0.2922
     101 H         4.700589   0.895876   2.433632 H        1 UNL1     0.0236
     102 H         6.029149   2.119384   2.497045 H        1 UNL1     0.0236
     103 H         6.31287   0.505731   1.921612 H        1 UNL1     0.0236
     104 H         4.327379   -0.561981   1.273074 H        1 UNL1     0.2098
     105 H         0.70892   1.281112   -0.931114 H        1 UNL1     0.0234
     106 H         1.289959   -0.4061   -1.013603 H        1 UNL1     0.0234
     107 H         0.0   -0.0   0.0 H        1 UNL1     0.0234
     108 H         1.216897   3.256296   1.740143 H        1 UNL1     0.2098
     109 H         1.081775   3.059528   -0.853588 H        1 UNL1     0.0234
     110 H         -0.171788   2.325995   -1.903974 H        1 UNL1     0.0234
     111 H         0.067327   4.03817   -1.892872 H        1 UNL1     0.0234
     112 H         -3.558752   -1.526885   1.461383 H        1 UNL1     0.0342
     113 H         -3.204907   0.109725   2.120579 H        1 UNL1     0.0342
     114 H         -4.408095   -0.098496   0.845059 H        1 UNL1     0.0342
     115 H         -2.650678   1.95404   3.312341 H        1 UNL1     0.0234
     116 H         -1.143643   1.922255   4.233547 H        1 UNL1     0.0234
     117 H         -1.619019   3.303569   3.223777 H        1 UNL1     0.0234
     118 H         0.945694   7.681265   -0.77683 H        1 UNL1     0.0309
     119 H         2.215063   7.783672   -2.036305 H        1 UNL1     0.0309
     120 H         1.458282   6.263106   -1.615215 H        1 UNL1     0.0309
     121 H         -0.277345   6.262001   2.841484 H        1 UNL1     0.0524
     122 H         -2.014669   6.0839   2.564276 H        1 UNL1     0.0524
     123 H         -1.269189   5.331238   3.996583 H        1 UNL1     0.0524
@<TRIPOS>BOND
     1     1     2    1
     2     1    42    1
     3     2     3    2
     4     3     4    1
     5     4     5    2
     6     5     7    1
     7     6    75    1
     8     6    76    1
     9     6    77    1
    10     7     9   am
    11     9    10    1
    12    10    11    2
    13    10    43    1
    14    11    14    1
    15    11    15    1
    16    12    13   ar
    17    12    27   ar
    18    12    43    1
    19    13    14    1
    20    13    30   ar
    21    14    17    2
    22    15    16    1
    23    16    17    1
    24    16    18    1
    25    16    22    1
    26    18    19    1
    27    19    20    1
    28    20    21    1
    29    21    22    1
    30    23    24    1
    31    23    88    1
    32    23    89    1
    33    24    25    1
    34    24    26    1
    35    24    90    1
    36    25    91    1
    37    25    92    1
    38    25    93    1
    39    26    94    1
    40    26    95    1
    41    26    96    1
    42    27    28   ar
    43    28    29   ar
    44    29    30   ar
    45    29    31    1
    46    30    33    1
    47    31    32    1
    48    32    33    1
    49    32    35    1
    50    34    97    1
    51    34    98    1
    52    34    99    1
    53    35    61    1
    54    36    37    1
    55    36    60    1
    56    37    38    1
    57    38    39    1
    58    39    40    1
    59    40    41    1
    60    41    42    1
    61    45   100    1
    62    47   101    1
    63    47   102    1
    64    47   103    1
    65    48   104    1
    66    49   105    1
    67    49   106    1
    68    49   107    1
    69    50   108    1
    70    51    59    1
    71    52   109    1
    72    52   110    1
    73    52   111    1
    74    53    54    1
    75    54    55    2
    76    54    56    1
    77    56   112    1
    78    56   113    1
    79    56   114    1
    80    57   115    1
    81    57   116    1
    82    57   117    1
    83    58   118    1
    84    58   119    1
    85    58   120    1
    86    59   121    1
    87    59   122    1
    88    59   123    1
    89    60    61    2
    90     1    47    1
    91     1    62    1
    92     2    63    1
    93     3    64    1
    94     4    65    1
    95     5     6    1
    96     7     8    2
    97     9    78    1
    98    15    79    1
    99    18    80    1
   100    18    81    1
   101    19    82    1
   102    19    83    1
   103    20    23    1
   104    21    84    1
   105    21    85    1
   106    22    86    1
   107    22    87    1
   108    27    45    1
   109    28    34    1
   110    32    58    1
   111    33    46    2
   112    36    51    1
   113    36    66    1
   114    37    52    1
   115    37    67    1
   116    38    53    1
   117    38    68    1
   118    42    48    1
   119    42    72    1
   120    43    44    2
   121    60    73    1
   122    61    74    1
   123    39    69    1
   124    39    57    1
   125    40    70    1
   126    40    50    1
   127    41    71    1
   128    41    49    1
