@<TRIPOS>MOLECULE
*****
 123 128 0 0 0
SMALL
GASTEIGER

@<TRIPOS>ATOM
     1 C         5.16868   1.741851   0.499977 C.3        1 UNL1     0.0009
     2 C         6.607886   2.546   -0.348 C.2        1 UNL1     -0.0787
     3 C         7.890754   2.446069   -1.011558 C.2        1 UNL1     -0.0649
     4 C         8.771139   3.679989   -1.765694 C.2        1 UNL1     -0.0542
     5 C         9.793142   3.971234   -2.702584 C.2        1 UNL1     0.0115
     6 C         10.921959   3.344246   -3.566288 C.3        1 UNL1     -0.0348
     7 C         9.891502   5.454343   -3.308969 C.2        1 UNL1     0.2441
     8 O         10.715851   6.274892   -2.929926 O.2        1 UNL1     -0.2702
     9 N         9.143539   5.662284   -4.480917 N.am        1 UNL1     -0.2772
     10 C         7.860817   6.0507   -4.169341 C.2        1 UNL1     0.1049
     11 C         7.013232   5.080435   -3.87881 C.2        1 UNL1     0.0801
     12 C         6.562207   7.65914   -2.760843 C.ar        1 UNL1     0.0753
     13 C         5.800876   6.532261   -2.314605 C.ar        1 UNL1     0.0305
     14 C         5.917141   5.226384   -2.959757 C.2        1 UNL1     0.0924
     15 N         7.134332   3.751289   -4.037654 N.pl3        1 UNL1     -0.3170
     16 C         5.863139   3.153838   -3.725607 C.3        1 UNL1     0.1275
     17 N         5.22637   4.109958   -2.746789 N.2        1 UNL1     -0.2557
     18 C         5.012507   3.214018   -4.990718 C.3        1 UNL1     0.0016
     19 C         5.768372   2.528876   -6.118033 C.3        1 UNL1     0.0026
     20 N         6.036007   1.150424   -5.731679 N.3        1 UNL1     -0.3018
     21 C         6.797052   0.98904   -4.491061 C.3        1 UNL1     0.0026
     22 C         6.017344   1.680642   -3.371402 C.3        1 UNL1     0.0016
     23 C         6.481284   0.330255   -6.840595 C.3        1 UNL1     0.0012
     24 C         5.327165   0.082304   -7.82461 C.3        1 UNL1     -0.0339
     25 C         5.356038   1.085411   -8.989513 C.3        1 UNL1     -0.0615
     26 C         5.365467   -1.35247   -8.321337 C.3        1 UNL1     -0.0615
     27 C         6.358342   8.927125   -2.221611 C.ar        1 UNL1     0.1347
     28 C         5.398027   9.197994   -1.263239 C.ar        1 UNL1     0.0342
     29 C         4.694163   8.064504   -0.803958 C.ar        1 UNL1     0.1435
     30 C         4.912733   6.782167   -1.30899 C.ar        1 UNL1     0.0774
     31 O         3.651886   8.1795   0.047771 O.3        1 UNL1     -0.4436
     32 C         2.928791   6.947648   -0.095568 C.3        1 UNL1     0.3143
     33 C         3.941646   5.953162   -0.625977 C.2        1 UNL1     0.2504
     34 C         4.952286   10.564714   -0.82336 C.3        1 UNL1     -0.0327
     35 O         2.565349   6.51148   1.220076 O.2        1 UNL1     -0.4528
     36 C         -0.679623   4.583647   0.817946 C.3        1 UNL1     0.0854
     37 C         -0.985114   3.323442   -0.079875 C.3        1 UNL1     0.0236
     38 C         -1.588692   2.063237   0.707094 C.3        1 UNL1     0.1131
     39 C         -0.86584   1.531375   2.009737 C.3        1 UNL1     0.0200
     40 C         0.795083   1.383595   2.053704 C.3        1 UNL1     0.0661
     41 C         1.75538   0.613429   0.886535 C.3        1 UNL1     0.0091
     42 C         3.4644   0.973664   0.32539 C.3        1 UNL1     0.0661
     43 C         7.513852   7.450115   -3.880191 C.2        1 UNL1     0.2131
     44 O         7.916151   8.347625   -4.598082 O.2        1 UNL1     -0.2851
     45 O         7.172772   9.961119   -2.678774 O.3        1 UNL1     -0.5056
     46 O         3.955794   4.749612   -0.495126 O.2        1 UNL1     -0.2836
     47 C         5.562046   1.3119   1.938861 C.3        1 UNL1     -0.0566
     48 O         3.910924   -0.43804   0.407985 O.3        1 UNL1     -0.3909
     49 C         0.922964   0.38191   -0.354826 C.3        1 UNL1     -0.0577
     50 O         1.396261   2.600664   2.447467 O.3        1 UNL1     -0.3910
     51 O         -0.806303   4.3942   2.209166 O.3        1 UNL1     -0.3753
     52 C         0.061057   3.161513   -1.230637 C.3        1 UNL1     -0.0564
     53 O         -2.191184   1.025027   -0.193711 O.3        1 UNL1     -0.4608
     54 C         -2.415819   -0.284648   0.141284 C.2        1 UNL1     0.3042
     55 O         -1.844238   -1.278426   -0.305414 O.2        1 UNL1     -0.2512
     56 C         -3.447244   -0.46132   1.219088 C.3        1 UNL1     0.0332
     57 C         -1.588081   2.201397   3.269742 C.3        1 UNL1     -0.0567
     58 C         1.855747   7.194139   -1.181547 C.3        1 UNL1     0.0210
     59 C         -1.150075   5.567336   2.944991 C.3        1 UNL1     0.0372
     60 C         0.650605   5.210927   0.589531 C.2        1 UNL1     -0.0208
     61 C         1.562668   5.644969   1.460446 C.2        1 UNL1     0.0882
     62 H         4.693942   2.726669   0.586403 H        1 UNL1     0.0365
     63 H         6.342885   3.600163   -0.24319 H        1 UNL1     0.0576
     64 H         8.347473   1.478592   -1.231794 H        1 UNL1     0.0615
     65 H         8.284712   4.596059   -1.419735 H        1 UNL1     0.0622
     66 H         -1.422744   5.331164   0.506441 H        1 UNL1     0.0645
     67 H         -1.849219   3.633946   -0.692631 H        1 UNL1     0.0362
     68 H         -2.53576   2.501409   1.057225 H        1 UNL1     0.0741
     69 H         -1.199054   0.520735   2.204631 H        1 UNL1     0.0359
     70 H         0.904492   0.723158   2.935131 H        1 UNL1     0.0600
     71 H         1.796869   -0.407773   1.313598 H        1 UNL1     0.0348
     72 H         3.357539   1.462062   1.304861 H        1 UNL1     0.0602
     73 H         0.770501   5.407964   -0.446833 H        1 UNL1     0.0628
     74 H         1.543048   5.434384   2.530263 H        1 UNL1     0.1022
     75 H         10.964691   2.238916   -3.413142 H        1 UNL1     0.0279
     76 H         10.810242   3.427133   -4.645045 H        1 UNL1     0.0279
     77 H         11.926897   3.64761   -3.238002 H        1 UNL1     0.0279
     78 H         9.08124   4.792392   -5.005784 H        1 UNL1     0.1553
     79 H         7.800055   3.322367   -4.653911 H        1 UNL1     0.1484
     80 H         4.05024   2.724393   -4.798165 H        1 UNL1     0.0317
     81 H         4.787753   4.251062   -5.262153 H        1 UNL1     0.0317
     82 H         6.700165   3.058907   -6.364491 H        1 UNL1     0.0428
     83 H         5.144786   2.584816   -7.010816 H        1 UNL1     0.0428
     84 H         6.915446   -0.054057   -4.181637 H        1 UNL1     0.0428
     85 H         7.827813   1.355675   -4.593177 H        1 UNL1     0.0428
     86 H         6.531911   1.42963   -2.462445 H        1 UNL1     0.0317
     87 H         5.037047   1.204336   -3.247923 H        1 UNL1     0.0317
     88 H         7.278958   0.870946   -7.366582 H        1 UNL1     0.0429
     89 H         6.912014   -0.616082   -6.488896 H        1 UNL1     0.0429
     90 H         4.373561   0.190329   -7.294342 H        1 UNL1     0.0308
     91 H         6.305801   1.039192   -9.530731 H        1 UNL1     0.0233
     92 H         4.536659   0.89238   -9.685909 H        1 UNL1     0.0233
     93 H         5.232519   2.12147   -8.651637 H        1 UNL1     0.0233
     94 H         4.67041   -1.481154   -9.1581 H        1 UNL1     0.0233
     95 H         6.370103   -1.598121   -8.676757 H        1 UNL1     0.0233
     96 H         5.088826   -2.055892   -7.530998 H        1 UNL1     0.0233
     97 H         4.157646   10.516048   -0.084842 H        1 UNL1     0.0280
     98 H         5.765022   11.133686   -0.353268 H        1 UNL1     0.0280
     99 H         4.580823   11.1297   -1.693935 H        1 UNL1     0.0280
     100 H         6.70729   10.712079   -3.002824 H        1 UNL1     0.2922
     101 H         4.697806   0.879455   2.442584 H        1 UNL1     0.0236
     102 H         6.012946   2.11667   2.518532 H        1 UNL1     0.0236
     103 H         6.317213   0.508211   1.939069 H        1 UNL1     0.0236
     104 H         4.328829   -0.564543   1.282241 H        1 UNL1     0.2098
     105 H         0.712487   1.280993   -0.928551 H        1 UNL1     0.0234
     106 H         1.292384   -0.406649   -1.010288 H        1 UNL1     0.0234
     107 H         0.0   -0.0   0.0 H        1 UNL1     0.0234
     108 H         1.197363   3.259877   1.754902 H        1 UNL1     0.2098
     109 H         1.085102   3.046679   -0.848726 H        1 UNL1     0.0234
     110 H         -0.171366   2.334686   -1.910402 H        1 UNL1     0.0234
     111 H         0.084528   4.044258   -1.883445 H        1 UNL1     0.0234
     112 H         -3.574401   -1.525088   1.441741 H        1 UNL1     0.0342
     113 H         -3.199266   0.099314   2.119109 H        1 UNL1     0.0342
     114 H         -4.406008   -0.07913   0.842434 H        1 UNL1     0.0342
     115 H         -2.652688   1.934408   3.319898 H        1 UNL1     0.0234
     116 H         -1.138491   1.940305   4.22982 H        1 UNL1     0.0234
     117 H         -1.646966   3.301769   3.209273 H        1 UNL1     0.0234
     118 H         0.954644   7.682284   -0.770775 H        1 UNL1     0.0309
     119 H         2.227319   7.781571   -2.027159 H        1 UNL1     0.0309
     120 H         1.466631   6.262677   -1.607075 H        1 UNL1     0.0309
     121 H         -0.34613   6.289973   2.807783 H        1 UNL1     0.0524
     122 H         -2.080657   6.032673   2.579594 H        1 UNL1     0.0524
     123 H         -1.264804   5.329858   3.998811 H        1 UNL1     0.0524
@<TRIPOS>BOND
     1     1     2    1
     2     1    42    1
     3     2     3    2
     4     3     4    1
     5     4     5    2
     6     5     7    1
     7     6    75    1
     8     6    76    1
     9     6    77    1
    10     7     9   am
    11     9    10    1
    12    10    11    2
    13    10    43    1
    14    11    14    1
    15    11    15    1
    16    12    13   ar
    17    12    27   ar
    18    12    43    1
    19    13    14    1
    20    13    30   ar
    21    14    17    2
    22    15    16    1
    23    16    17    1
    24    16    18    1
    25    16    22    1
    26    18    19    1
    27    19    20    1
    28    20    21    1
    29    21    22    1
    30    23    24    1
    31    23    88    1
    32    23    89    1
    33    24    25    1
    34    24    26    1
    35    24    90    1
    36    25    91    1
    37    25    92    1
    38    25    93    1
    39    26    94    1
    40    26    95    1
    41    26    96    1
    42    27    28   ar
    43    28    29   ar
    44    29    30   ar
    45    29    31    1
    46    30    33    1
    47    31    32    1
    48    32    33    1
    49    32    35    1
    50    34    97    1
    51    34    98    1
    52    34    99    1
    53    35    61    1
    54    36    37    1
    55    36    60    1
    56    37    38    1
    57    38    39    1
    58    39    40    1
    59    40    41    1
    60    41    42    1
    61    45   100    1
    62    47   101    1
    63    47   102    1
    64    47   103    1
    65    48   104    1
    66    49   105    1
    67    49   106    1
    68    49   107    1
    69    50   108    1
    70    51    59    1
    71    52   109    1
    72    52   110    1
    73    52   111    1
    74    53    54    1
    75    54    55    2
    76    54    56    1
    77    56   112    1
    78    56   113    1
    79    56   114    1
    80    57   115    1
    81    57   116    1
    82    57   117    1
    83    58   118    1
    84    58   119    1
    85    58   120    1
    86    59   121    1
    87    59   122    1
    88    59   123    1
    89    60    61    2
    90     1    47    1
    91     1    62    1
    92     2    63    1
    93     3    64    1
    94     4    65    1
    95     5     6    1
    96     7     8    2
    97     9    78    1
    98    15    79    1
    99    18    80    1
   100    18    81    1
   101    19    82    1
   102    19    83    1
   103    20    23    1
   104    21    84    1
   105    21    85    1
   106    22    86    1
   107    22    87    1
   108    27    45    1
   109    28    34    1
   110    32    58    1
   111    33    46    2
   112    36    51    1
   113    36    66    1
   114    37    52    1
   115    37    67    1
   116    38    53    1
   117    38    68    1
   118    42    48    1
   119    42    72    1
   120    43    44    2
   121    60    73    1
   122    61    74    1
   123    39    69    1
   124    39    57    1
   125    40    70    1
   126    40    50    1
   127    41    71    1
   128    41    49    1
