@<TRIPOS>MOLECULE
*****
 123 128 0 0 0
SMALL
GASTEIGER

@<TRIPOS>ATOM
     1 C         -3.250206   -0.183555   -2.715414 C.3        1 UNL1     0.0009
     2 C         -4.978425   -0.76122   -2.37395 C.2        1 UNL1     -0.0787
     3 C         -6.014281   -1.765321   -2.495736 C.2        1 UNL1     -0.0649
     4 C         -7.549712   -1.768217   -1.782435 C.2        1 UNL1     -0.0542
     5 C         -8.651906   -2.573145   -1.402514 C.2        1 UNL1     0.0115
     6 C         -9.274796   -3.990803   -1.527316 C.3        1 UNL1     -0.0348
     7 C         -9.702961   -1.997171   -0.33456 C.2        1 UNL1     0.2441
     8 O         -10.797032   -1.551099   -0.651665 O.2        1 UNL1     -0.2702
     9 N         -9.392823   -2.278055   1.007479 N.am        1 UNL1     -0.2772
     10 C         -8.57703   -1.299233   1.526817 C.2        1 UNL1     0.1049
     11 C         -7.286955   -1.420818   1.271582 C.2        1 UNL1     0.0801
     12 C         -8.341322   1.182408   1.734739 C.ar        1 UNL1     0.0753
     13 C         -7.004334   1.017224   1.251226 C.ar        1 UNL1     0.0305
     14 C         -6.392468   -0.304086   1.12953 C.2        1 UNL1     0.0924
     15 N         -6.601363   -2.458175   0.761306 N.pl3        1 UNL1     -0.3170
     16 C         -5.199991   -2.14336   0.846755 C.3        1 UNL1     0.1275
     17 N         -5.147765   -0.635824   0.798484 N.2        1 UNL1     -0.2557
     18 C         -4.732111   -2.538777   2.244051 C.3        1 UNL1     0.0016
     19 C         -5.060873   -4.005905   2.469971 C.3        1 UNL1     0.0026
     20 N         -4.389666   -4.798298   1.448882 N.3        1 UNL1     -0.3018
     21 C         -4.729212   -4.449053   0.067902 C.3        1 UNL1     0.0026
     22 C         -4.386583   -2.972576   -0.138292 C.3        1 UNL1     0.0016
     23 C         -4.390188   -6.217046   1.745187 C.3        1 UNL1     0.0012
     24 C         -3.460955   -6.519936   2.931163 C.3        1 UNL1     -0.0339
     25 C         -2.780362   -7.889971   2.776724 C.3        1 UNL1     -0.0615
     26 C         -2.442489   -5.404864   3.092789 C.3        1 UNL1     -0.0615
     27 C         -8.875233   2.448607   1.962332 C.ar        1 UNL1     0.1347
     28 C         -8.157795   3.617636   1.781488 C.ar        1 UNL1     0.0342
     29 C         -6.860336   3.432561   1.258504 C.ar        1 UNL1     0.1435
     30 C         -6.324876   2.171936   0.991435 C.ar        1 UNL1     0.0774
     31 O         -5.998318   4.464786   1.130271 O.3        1 UNL1     -0.4436
     32 C         -4.705087   3.84817   1.039665 C.3        1 UNL1     0.3143
     33 C         -4.971567   2.438815   0.550871 C.2        1 UNL1     0.2504
     34 C         -8.573894   4.987438   2.240404 C.3        1 UNL1     -0.0327
     35 O         -3.984254   4.521017   -1.2e-05 O.2        1 UNL1     -0.4528
     36 C         -0.320602   4.312039   0.970587 C.3        1 UNL1     0.0854
     37 C         0.562607   3.03751   1.258758 C.3        1 UNL1     0.0236
     38 C         1.90036   2.929714   0.380953 C.3        1 UNL1     0.1131
     39 C         1.822407   3.085208   -1.191311 C.3        1 UNL1     0.0200
     40 C         0.610301   2.332787   -2.055659 C.3        1 UNL1     0.0661
     41 C         0.166747   0.700269   -1.930134 C.3        1 UNL1     0.0091
     42 C         -1.468606   -0.107152   -2.127855 C.3        1 UNL1     0.0661
     43 C         -9.110255   -0.041495   2.070987 C.2        1 UNL1     0.2131
     44 O         -10.061857   -0.051021   2.830657 O.2        1 UNL1     -0.2851
     45 O         -10.199411   2.523109   2.38946 O.3        1 UNL1     -0.5056
     46 O         -4.239739   1.708933   -0.079647 O.2        1 UNL1     -0.2836
     47 C         -3.112563   0.259644   -4.196836 C.3        1 UNL1     -0.0566
     48 O         -0.957773   -1.183444   -3.010896 O.3        1 UNL1     -0.3909
     49 C         0.799321   0.116956   -0.686314 C.3        1 UNL1     -0.0577
     50 O         -0.545382   3.144746   -2.108983 O.3        1 UNL1     -0.3910
     51 O         0.07499   5.099758   -0.129611 O.3        1 UNL1     -0.3753
     52 C         -0.313214   1.786893   1.596163 C.3        1 UNL1     -0.0564
     53 O         2.883   1.923596   0.904854 O.3        1 UNL1     -0.4608
     54 C         3.874169   1.324262   0.17252 C.2        1 UNL1     0.3042
     55 O         3.877764   0.182392   -0.285692 O.2        1 UNL1     -0.2512
     56 C         5.03739   2.229064   -0.118965 C.3        1 UNL1     0.0332
     57 C         2.151155   4.610705   -1.541968 C.3        1 UNL1     -0.0567
     58 C         -4.151169   3.779627   2.481888 C.3        1 UNL1     0.0210
     59 C         0.666145   6.35265   0.21195 C.3        1 UNL1     0.0372
     60 C         -1.775499   4.044834   0.806159 C.2        1 UNL1     -0.0208
     61 C         -2.64126   4.501322   -0.099832 C.2        1 UNL1     0.0882
     62 H         -3.459308   0.723493   -2.135542 H        1 UNL1     0.0365
     63 H         -5.391991   0.117649   -1.874929 H        1 UNL1     0.0576
     64 H         -5.81893   -2.736343   -2.956238 H        1 UNL1     0.0615
     65 H         -7.674266   -0.741464   -1.427825 H        1 UNL1     0.0622
     66 H         -0.227352   4.923626   1.879055 H        1 UNL1     0.0645
     67 H         0.975293   3.219541   2.266287 H        1 UNL1     0.0362
     68 H         2.427054   3.828142   0.737244 H        1 UNL1     0.0741
     69 H         2.719589   2.666478   -1.627359 H        1 UNL1     0.0359
     70 H         1.037612   2.392562   -3.07492 H        1 UNL1     0.0600
     71 H         0.80576   0.264823   -2.723233 H        1 UNL1     0.0348
     72 H         -1.551188   0.870661   -2.624219 H        1 UNL1     0.0602
     73 H         -2.123996   3.48498   1.638242 H        1 UNL1     0.0628
     74 H         -2.35913   5.031749   -1.009935 H        1 UNL1     0.1022
     75 H         -8.585013   -4.674987   -2.077884 H        1 UNL1     0.0279
     76 H         -9.445968   -4.529042   -0.597764 H        1 UNL1     0.0279
     77 H         -10.162518   -4.009626   -2.17639 H        1 UNL1     0.0279
     78 H         -8.887689   -3.159911   1.064457 H        1 UNL1     0.1553
     79 H         -6.946994   -3.400086   0.744704 H        1 UNL1     0.1484
     80 H         -3.654466   -2.352537   2.326283 H        1 UNL1     0.0317
     81 H         -5.216147   -1.921124   3.008161 H        1 UNL1     0.0317
     82 H         -6.145946   -4.186041   2.461052 H        1 UNL1     0.0428
     83 H         -4.720482   -4.266385   3.472635 H        1 UNL1     0.0428
     84 H         -4.152869   -5.003605   -0.679167 H        1 UNL1     0.0428
     85 H         -5.77477   -4.689582   -0.169312 H        1 UNL1     0.0428
     86 H         -4.521424   -2.787889   -1.187909 H        1 UNL1     0.0317
     87 H         -3.311802   -2.81286   0.011483 H        1 UNL1     0.0317
     88 H         -5.412652   -6.508379   2.019027 H        1 UNL1     0.0429
     89 H         -4.11246   -6.80868   0.863364 H        1 UNL1     0.0429
     90 H         -4.049307   -6.524632   3.856383 H        1 UNL1     0.0308
     91 H         -2.382266   -8.024693   1.76654 H        1 UNL1     0.0233
     92 H         -1.969066   -8.001979   3.499816 H        1 UNL1     0.0233
     93 H         -3.470626   -8.72225   2.960252 H        1 UNL1     0.0233
     94 H         -1.568959   -5.768273   3.644799 H        1 UNL1     0.0233
     95 H         -2.102806   -5.063864   2.110803 H        1 UNL1     0.0233
     96 H         -2.86473   -4.554297   3.635206 H        1 UNL1     0.0233
     97 H         -9.408331   5.374511   1.663239 H        1 UNL1     0.0280
     98 H         -8.905381   4.99029   3.287001 H        1 UNL1     0.0280
     99 H         -7.727155   5.685207   2.13435 H        1 UNL1     0.0280
     100 H         -10.804151   2.011817   1.881038 H        1 UNL1     0.2922
     101 H         -2.245696   0.910888   -4.306742 H        1 UNL1     0.0236
     102 H         -4.019149   0.714964   -4.594038 H        1 UNL1     0.0236
     103 H         -2.909235   -0.592391   -4.866826 H        1 UNL1     0.0236
     104 H         -0.697319   -1.933559   -2.44128 H        1 UNL1     0.2098
     105 H         1.258929   -0.857543   -0.830968 H        1 UNL1     0.0234
     106 H         1.486768   0.785752   -0.168572 H        1 UNL1     0.0234
     107 H         0.0   0.0   0.0 H        1 UNL1     0.0234
     108 H         -1.210411   2.668157   -2.642244 H        1 UNL1     0.2098
     109 H         -0.930316   1.940761   2.492389 H        1 UNL1     0.0234
     110 H         -0.949692   1.469744   0.763062 H        1 UNL1     0.0234
     111 H         0.305546   0.905009   1.809149 H        1 UNL1     0.0234
     112 H         5.976647   1.69087   0.040689 H        1 UNL1     0.0342
     113 H         4.991179   2.644489   -1.124515 H        1 UNL1     0.0342
     114 H         5.005384   3.068129   0.589632 H        1 UNL1     0.0342
     115 H         1.922769   4.847129   -2.590363 H        1 UNL1     0.0234
     116 H         1.620525   5.333661   -0.919219 H        1 UNL1     0.0234
     117 H         3.22771   4.849757   -1.499256 H        1 UNL1     0.0234
     118 H         -3.30239   4.469319   2.633236 H        1 UNL1     0.0309
     119 H         -4.912033   3.975396   3.244097 H        1 UNL1     0.0309
     120 H         -3.725948   2.799168   2.722708 H        1 UNL1     0.0309
     121 H         0.505007   7.032174   -0.624494 H        1 UNL1     0.0524
     122 H         0.200185   6.806149   1.102599 H        1 UNL1     0.0524
     123 H         1.729789   6.228955   0.394856 H        1 UNL1     0.0524
@<TRIPOS>BOND
     1     1     2    1
     2     1    42    1
     3     2     3    2
     4     3     4    1
     5     4     5    2
     6     5     7    1
     7     6    75    1
     8     6    76    1
     9     6    77    1
    10     7     9   am
    11     9    10    1
    12    10    11    2
    13    10    43    1
    14    11    14    1
    15    11    15    1
    16    12    13   ar
    17    12    27   ar
    18    12    43    1
    19    13    14    1
    20    13    30   ar
    21    14    17    2
    22    15    16    1
    23    16    17    1
    24    16    18    1
    25    16    22    1
    26    18    19    1
    27    19    20    1
    28    20    21    1
    29    21    22    1
    30    23    24    1
    31    23    88    1
    32    23    89    1
    33    24    25    1
    34    24    26    1
    35    24    90    1
    36    25    91    1
    37    25    92    1
    38    25    93    1
    39    26    94    1
    40    26    95    1
    41    26    96    1
    42    27    28   ar
    43    28    29   ar
    44    29    30   ar
    45    29    31    1
    46    30    33    1
    47    31    32    1
    48    32    33    1
    49    32    35    1
    50    34    97    1
    51    34    98    1
    52    34    99    1
    53    35    61    1
    54    36    37    1
    55    36    60    1
    56    37    38    1
    57    38    39    1
    58    39    40    1
    59    40    41    1
    60    41    42    1
    61    45   100    1
    62    47   101    1
    63    47   102    1
    64    47   103    1
    65    48   104    1
    66    49   105    1
    67    49   106    1
    68    49   107    1
    69    50   108    1
    70    51    59    1
    71    52   109    1
    72    52   110    1
    73    52   111    1
    74    53    54    1
    75    54    55    2
    76    54    56    1
    77    56   112    1
    78    56   113    1
    79    56   114    1
    80    57   115    1
    81    57   116    1
    82    57   117    1
    83    58   118    1
    84    58   119    1
    85    58   120    1
    86    59   121    1
    87    59   122    1
    88    59   123    1
    89    60    61    2
    90     1    47    1
    91     1    62    1
    92     2    63    1
    93     3    64    1
    94     4    65    1
    95     5     6    1
    96     7     8    2
    97     9    78    1
    98    15    79    1
    99    18    80    1
   100    18    81    1
   101    19    82    1
   102    19    83    1
   103    20    23    1
   104    21    84    1
   105    21    85    1
   106    22    86    1
   107    22    87    1
   108    27    45    1
   109    28    34    1
   110    32    58    1
   111    33    46    2
   112    36    51    1
   113    36    66    1
   114    37    52    1
   115    37    67    1
   116    38    53    1
   117    38    68    1
   118    42    48    1
   119    42    72    1
   120    43    44    2
   121    60    73    1
   122    61    74    1
   123    39    69    1
   124    39    57    1
   125    40    70    1
   126    40    50    1
   127    41    71    1
   128    41    49    1
