@<TRIPOS>MOLECULE
*****
 123 128 0 0 0
SMALL
GASTEIGER

@<TRIPOS>ATOM
     1 C         5.183526   1.708235   0.460717 C.3        1 UNL1     0.0009
     2 C         6.622361   2.500502   -0.398994 C.2        1 UNL1     -0.0787
     3 C         7.900029   2.390236   -1.070896 C.2        1 UNL1     -0.0649
     4 C         8.78359   3.616268   -1.834126 C.2        1 UNL1     -0.0542
     5 C         9.801194   3.89823   -2.778615 C.2        1 UNL1     0.0115
     6 C         10.919925   3.26145   -3.648256 C.3        1 UNL1     -0.0348
     7 C         9.905436   5.379093   -3.389489 C.2        1 UNL1     0.2441
     8 O         10.737819   6.195029   -3.018122 O.2        1 UNL1     -0.2702
     9 N         9.151009   5.589087   -4.556919 N.am        1 UNL1     -0.2772
     10 C         7.873057   5.986934   -4.237738 C.2        1 UNL1     0.1049
     11 C         7.020944   5.023148   -3.939004 C.2        1 UNL1     0.0801
     12 C         6.594809   7.607673   -2.824719 C.ar        1 UNL1     0.0753
     13 C         5.828943   6.487092   -2.370457 C.ar        1 UNL1     0.0305
     14 C         5.932075   5.178822   -3.012988 C.2        1 UNL1     0.0924
     15 N         7.132031   3.692815   -4.095213 N.pl3        1 UNL1     -0.3170
     16 C         5.85898   3.104744   -3.773084 C.3        1 UNL1     0.1275
     17 N         5.235264   4.067624   -2.792491 N.2        1 UNL1     -0.2557
     18 C         5.000268   3.167435   -5.032602 C.3        1 UNL1     0.0016
     19 C         5.743897   2.474344   -6.163191 C.3        1 UNL1     0.0026
     20 N         6.004854   1.095107   -5.775073 N.3        1 UNL1     -0.3018
     21 C         6.773138   0.931757   -4.539183 C.3        1 UNL1     0.0026
     22 C         6.005659   1.631448   -3.416105 C.3        1 UNL1     0.0016
     23 C         6.437125   0.269134   -6.884826 C.3        1 UNL1     0.0012
     24 C         5.274762   0.026464   -7.860418 C.3        1 UNL1     -0.0339
     25 C         5.30253   1.026384   -9.028085 C.3        1 UNL1     -0.0615
     26 C         5.300068   -1.409795   -8.35367 C.3        1 UNL1     -0.0615
     27 C         6.403113   8.878373   -2.287417 C.ar        1 UNL1     0.1347
     28 C         5.45112   9.158149   -1.323319 C.ar        1 UNL1     0.0342
     29 C         4.74276   8.030603   -0.856383 C.ar        1 UNL1     0.1435
     30 C         4.949295   6.745539   -1.359547 C.ar        1 UNL1     0.0774
     31 O         3.707042   8.154791   0.00203 O.3        1 UNL1     -0.4436
     32 C         2.97473   6.927481   -0.133253 C.3        1 UNL1     0.3143
     33 C         3.977279   5.924841   -0.667877 C.2        1 UNL1     0.2504
     34 C         5.017552   10.528958   -0.883999 C.3        1 UNL1     -0.0327
     35 O         2.617236   6.497124   1.185929 O.2        1 UNL1     -0.4528
     36 C         -0.643261   4.590192   0.810611 C.3        1 UNL1     0.0854
     37 C         -0.963261   3.329794   -0.081867 C.3        1 UNL1     0.0236
     38 C         -1.569983   2.075694   0.712404 C.3        1 UNL1     0.1131
     39 C         -0.841964   1.54229   2.011534 C.3        1 UNL1     0.0200
     40 C         0.818186   1.383429   2.044722 C.3        1 UNL1     0.0661
     41 C         1.765398   0.603837   0.873126 C.3        1 UNL1     0.0091
     42 C         3.472982   0.951113   0.299577 C.3        1 UNL1     0.0661
     43 C         7.537465   7.389387   -3.949891 C.2        1 UNL1     0.2131
     44 O         7.940944   8.282334   -4.672794 O.2        1 UNL1     -0.2851
     45 O         7.221378   9.905685   -2.752721 O.3        1 UNL1     -0.5056
     46 O         3.984215   4.721561   -0.534006 O.2        1 UNL1     -0.2836
     47 C         5.583678   1.279308   1.898035 C.3        1 UNL1     -0.0566
     48 O         3.91055   -0.463355   0.382829 O.3        1 UNL1     -0.3909
     49 C         0.9231   0.374775   -0.362009 C.3        1 UNL1     -0.0577
     50 O         1.430174   2.597417   2.431281 O.3        1 UNL1     -0.3910
     51 O         -0.761836   4.405148   2.203138 O.3        1 UNL1     -0.3753
     52 C         0.074021   3.157886   -1.23921 C.3        1 UNL1     -0.0564
     53 O         -2.185497   1.039278   -0.181638 O.3        1 UNL1     -0.4608
     54 C         -2.416671   -0.267995   0.158252 C.2        1 UNL1     0.3042
     55 O         -1.854808   -1.266738   -0.289699 O.2        1 UNL1     -0.2512
     56 C         -3.441977   -0.434965   1.243416 C.3        1 UNL1     0.0332
     57 C         -1.551178   2.220372   3.274623 C.3        1 UNL1     -0.0567
     58 C         1.896076   7.178433   -1.212632 C.3        1 UNL1     0.0210
     59 C         -1.092747   5.582444   2.938214 C.3        1 UNL1     0.0372
     60 C         0.689586   5.207907   0.571638 C.2        1 UNL1     -0.0208
     61 C         1.610393   5.638007   1.435277 C.2        1 UNL1     0.0882
     62 H         4.716014   2.696448   0.547778 H        1 UNL1     0.0365
     63 H         6.365166   3.556691   -0.295138 H        1 UNL1     0.0576
     64 H         8.348738   1.419144   -1.291687 H        1 UNL1     0.0615
     65 H         8.305676   4.536474   -1.487282 H        1 UNL1     0.0622
     66 H         -1.383421   5.341907   0.502171 H        1 UNL1     0.0645
     67 H         -1.829367   3.644554   -0.689605 H        1 UNL1     0.0362
     68 H         -2.511703   2.52113   1.067754 H        1 UNL1     0.0741
     69 H         -1.180646   0.534419   2.211282 H        1 UNL1     0.0359
     70 H         0.929088   0.724516   2.927102 H        1 UNL1     0.0600
     71 H         1.802896   -0.41653   1.302546 H        1 UNL1     0.0348
     72 H         3.376008   1.442713   1.278476 H        1 UNL1     0.0602
     73 H         0.803819   5.401492   -0.466016 H        1 UNL1     0.0628
     74 H         1.596566   5.430284   2.505743 H        1 UNL1     0.1022
     75 H         10.956254   2.15625   -3.492536 H        1 UNL1     0.0279
     76 H         10.801502   3.34234   -4.72645 H        1 UNL1     0.0279
     77 H         11.929068   3.558867   -3.327519 H        1 UNL1     0.0279
     78 H         9.079329   4.718301   -5.079099 H        1 UNL1     0.1553
     79 H         7.790688   3.257847   -4.714816 H        1 UNL1     0.1484
     80 H         4.03605   2.6848   -4.832319 H        1 UNL1     0.0317
     81 H         4.780668   4.205276   -5.305207 H        1 UNL1     0.0317
     82 H         6.677552   2.997452   -6.417277 H        1 UNL1     0.0428
     83 H         5.114701   2.532213   -7.051905 H        1 UNL1     0.0428
     84 H         6.886597   -0.111323   -4.227859 H        1 UNL1     0.0428
     85 H         7.805629   1.291174   -4.649173 H        1 UNL1     0.0428
     86 H         6.524638   1.379289   -2.509979 H        1 UNL1     0.0317
     87 H         5.023036   1.162077   -3.284809 H        1 UNL1     0.0317
     88 H         7.234855   0.803095   -7.417562 H        1 UNL1     0.0429
     89 H         6.863842   -0.679187   -6.533579 H        1 UNL1     0.0429
     90 H         4.3255   0.142265   -7.324036 H        1 UNL1     0.0308
     91 H         6.248293   0.972386   -9.575551 H        1 UNL1     0.0233
     92 H         4.477199   0.837108   -9.718456 H        1 UNL1     0.0233
     93 H         5.18826   2.064109   -8.692072 H        1 UNL1     0.0233
     94 H         4.59854   -1.535922   -9.185407 H        1 UNL1     0.0233
     95 H         6.300613   -1.663118   -8.715196 H        1 UNL1     0.0233
     96 H         5.024034   -2.109322   -7.55967 H        1 UNL1     0.0233
     97 H         4.227596   10.487531   -0.140034 H        1 UNL1     0.0280
     98 H         5.837244   11.093634   -0.420856 H        1 UNL1     0.0280
     99 H         4.64404   11.094217   -1.75352 H        1 UNL1     0.0280
     100 H         6.758784   10.658938   -3.075582 H        1 UNL1     0.2922
     101 H         4.719963   0.853983   2.408673 H        1 UNL1     0.0236
     102 H         6.043874   2.082494   2.472574 H        1 UNL1     0.0236
     103 H         6.333407   0.470549   1.895252 H        1 UNL1     0.0236
     104 H         4.333475   -0.590445   1.254582 H        1 UNL1     0.2098
     105 H         0.714812   1.273792   -0.936635 H        1 UNL1     0.0234
     106 H         1.282785   -0.417923   -1.017893 H        1 UNL1     0.0234
     107 H         0.0   -0.0   0.0 H        1 UNL1     0.0234
     108 H         1.231051   3.25619   1.738362 H        1 UNL1     0.2098
     109 H         1.099821   3.037124   -0.863892 H        1 UNL1     0.0234
     110 H         -0.16853   2.330916   -1.915252 H        1 UNL1     0.0234
     111 H         0.099029   4.038787   -1.894446 H        1 UNL1     0.0234
     112 H         -3.574781   -1.497281   1.469676 H        1 UNL1     0.0342
     113 H         -3.184176   0.126275   2.140295 H        1 UNL1     0.0342
     114 H         -4.400665   -0.047281   0.872224 H        1 UNL1     0.0342
     115 H         -2.617195   1.960694   3.332623 H        1 UNL1     0.0234
     116 H         -1.096896   1.958701   4.232331 H        1 UNL1     0.0234
     117 H         -1.603069   3.320958   3.211699 H        1 UNL1     0.0234
     118 H         1.001063   7.673686   -0.797081 H        1 UNL1     0.0309
     119 H         2.265885   7.761192   -2.062242 H        1 UNL1     0.0309
     120 H         1.497848   6.248535   -1.63312 H        1 UNL1     0.0309
     121 H         -0.28341   6.298117   2.79629 H        1 UNL1     0.0524
     122 H         -2.02096   6.054837   2.575856 H        1 UNL1     0.0524
     123 H         -1.205009   5.347854   3.992945 H        1 UNL1     0.0524
@<TRIPOS>BOND
     1     1     2    1
     2     1    42    1
     3     2     3    2
     4     3     4    1
     5     4     5    2
     6     5     7    1
     7     6    75    1
     8     6    76    1
     9     6    77    1
    10     7     9   am
    11     9    10    1
    12    10    11    2
    13    10    43    1
    14    11    14    1
    15    11    15    1
    16    12    13   ar
    17    12    27   ar
    18    12    43    1
    19    13    14    1
    20    13    30   ar
    21    14    17    2
    22    15    16    1
    23    16    17    1
    24    16    18    1
    25    16    22    1
    26    18    19    1
    27    19    20    1
    28    20    21    1
    29    21    22    1
    30    23    24    1
    31    23    88    1
    32    23    89    1
    33    24    25    1
    34    24    26    1
    35    24    90    1
    36    25    91    1
    37    25    92    1
    38    25    93    1
    39    26    94    1
    40    26    95    1
    41    26    96    1
    42    27    28   ar
    43    28    29   ar
    44    29    30   ar
    45    29    31    1
    46    30    33    1
    47    31    32    1
    48    32    33    1
    49    32    35    1
    50    34    97    1
    51    34    98    1
    52    34    99    1
    53    35    61    1
    54    36    37    1
    55    36    60    1
    56    37    38    1
    57    38    39    1
    58    39    40    1
    59    40    41    1
    60    41    42    1
    61    45   100    1
    62    47   101    1
    63    47   102    1
    64    47   103    1
    65    48   104    1
    66    49   105    1
    67    49   106    1
    68    49   107    1
    69    50   108    1
    70    51    59    1
    71    52   109    1
    72    52   110    1
    73    52   111    1
    74    53    54    1
    75    54    55    2
    76    54    56    1
    77    56   112    1
    78    56   113    1
    79    56   114    1
    80    57   115    1
    81    57   116    1
    82    57   117    1
    83    58   118    1
    84    58   119    1
    85    58   120    1
    86    59   121    1
    87    59   122    1
    88    59   123    1
    89    60    61    2
    90     1    47    1
    91     1    62    1
    92     2    63    1
    93     3    64    1
    94     4    65    1
    95     5     6    1
    96     7     8    2
    97     9    78    1
    98    15    79    1
    99    18    80    1
   100    18    81    1
   101    19    82    1
   102    19    83    1
   103    20    23    1
   104    21    84    1
   105    21    85    1
   106    22    86    1
   107    22    87    1
   108    27    45    1
   109    28    34    1
   110    32    58    1
   111    33    46    2
   112    36    51    1
   113    36    66    1
   114    37    52    1
   115    37    67    1
   116    38    53    1
   117    38    68    1
   118    42    48    1
   119    42    72    1
   120    43    44    2
   121    60    73    1
   122    61    74    1
   123    39    69    1
   124    39    57    1
   125    40    70    1
   126    40    50    1
   127    41    71    1
   128    41    49    1
