@<TRIPOS>MOLECULE
*****
 123 128 0 0 0
SMALL
GASTEIGER

@<TRIPOS>ATOM
     1 C         3.07061   1.823221   -2.066818 C.3        1 UNL1     0.0009
     2 C         2.967466   2.757241   -3.664944 C.2        1 UNL1     -0.0787
     3 C         3.078655   2.793583   -5.107983 C.2        1 UNL1     -0.0649
     4 C         2.702913   4.075058   -6.148655 C.2        1 UNL1     -0.0542
     5 C         2.389599   4.433515   -7.482979 C.2        1 UNL1     0.0115
     6 C         2.333485   3.910176   -8.944584 C.3        1 UNL1     -0.0348
     7 C         1.700221   5.855787   -7.763849 C.2        1 UNL1     0.2441
     8 O         2.316934   6.820863   -8.193755 O.2        1 UNL1     -0.2702
     9 N         0.294863   5.845676   -7.731948 N.am        1 UNL1     -0.2772
     10 C         -0.157955   6.062666   -6.450857 C.2        1 UNL1     0.1049
     11 C         -0.197671   5.005217   -5.660638 C.2        1 UNL1     0.0801
     12 C         0.121383   7.574636   -4.477725 C.ar        1 UNL1     0.0753
     13 C         0.281426   6.389536   -3.691256 C.ar        1 UNL1     0.0305
     14 C         -0.004333   5.064601   -4.237097 C.2        1 UNL1     0.0924
     15 N         -0.066337   3.700621   -5.956119 N.pl3        1 UNL1     -0.3170
     16 C         -0.361839   2.948533   -4.765617 C.3        1 UNL1     0.1275
     17 N         -0.006941   3.879999   -3.632417 N.2        1 UNL1     -0.2557
     18 C         -1.875869   2.769335   -4.708146 C.3        1 UNL1     0.0016
     19 C         -2.336823   2.10963   -5.998069 C.3        1 UNL1     0.0026
     20 N         -1.66209   0.826178   -6.134132 N.3        1 UNL1     -0.3018
     21 C         -0.199123   0.890109   -6.137068 C.3        1 UNL1     0.0026
     22 C         0.242165   1.551923   -4.830483 C.3        1 UNL1     0.0016
     23 C         -2.245812   -0.011562   -7.162774 C.3        1 UNL1     0.0012
     24 C         -1.715887   -1.449778   -7.051099 C.3        1 UNL1     -0.0339
     25 C         -2.726506   -2.368198   -6.34455 C.3        1 UNL1     -0.0615
     26 C         -1.347762   -1.977444   -8.426901 C.3        1 UNL1     -0.0615
     27 C         0.278571   8.839829   -3.916747 C.ar        1 UNL1     0.1347
     28 C         0.555518   9.046073   -2.577041 C.ar        1 UNL1     0.0342
     29 C         0.757018   7.86424   -1.832842 C.ar        1 UNL1     0.1435
     30 C         0.638464   6.590113   -2.389408 C.ar        1 UNL1     0.0774
     31 O         0.925742   7.895342   -0.492853 O.3        1 UNL1     -0.4436
     32 C         0.623098   6.561056   -0.058159 C.3        1 UNL1     0.3143
     33 C         0.84563   5.687536   -1.276213 C.2        1 UNL1     0.2504
     34 C         0.489776   10.363461   -1.855745 C.3        1 UNL1     -0.0327
     35 O         1.6159   6.191968   0.906917 O.2        1 UNL1     -0.4528
     36 C         -0.089932   3.770701   3.280877 C.3        1 UNL1     0.0854
     37 C         -0.812171   2.405268   2.962305 C.3        1 UNL1     0.0236
     38 C         -0.262941   1.142376   3.784007 C.3        1 UNL1     0.1131
     39 C         1.28965   0.841156   3.815599 C.3        1 UNL1     0.0200
     40 C         2.199748   0.949063   2.421858 C.3        1 UNL1     0.0661
     41 C         1.822789   0.232865   0.931028 C.3        1 UNL1     0.0091
     42 C         2.168218   0.79536   -0.780602 C.3        1 UNL1     0.0661
     43 C         -0.305541   7.413913   -5.889873 C.2        1 UNL1     0.2131
     44 O         -0.843868   8.295428   -6.534755 O.2        1 UNL1     -0.2851
     45 O         0.150706   9.940482   -4.761526 O.3        1 UNL1     -0.5056
     46 O         1.147836   4.515886   -1.31819 O.2        1 UNL1     -0.2836
     47 C         4.554071   1.584762   -1.676352 C.3        1 UNL1     -0.0566
     48 O         2.682874   -0.52052   -1.23083 O.3        1 UNL1     -0.3909
     49 C         0.382842   -0.228775   0.961621 C.3        1 UNL1     -0.0577
     50 O         2.653913   2.272371   2.221077 O.3        1 UNL1     -0.3910
     51 O         1.050165   3.686766   4.10584 O.3        1 UNL1     -0.3753
     52 C         -1.22447   2.302382   1.457521 C.3        1 UNL1     -0.0564
     53 O         -1.173754   -0.049335   3.733314 O.3        1 UNL1     -0.4608
     54 C         -2.25849   -0.256128   4.544803 C.2        1 UNL1     0.3042
     55 O         -2.256502   -0.444769   5.760636 O.2        1 UNL1     -0.2512
     56 C         -3.573423   -0.177897   3.822622 C.3        1 UNL1     0.0332
     57 C         1.882291   1.502628   5.14579 C.3        1 UNL1     -0.0567
     58 C         -0.881922   6.547574   0.297177 C.3        1 UNL1     0.0210
     59 C         1.225157   4.784813   5.000007 C.3        1 UNL1     0.0372
     60 C         0.301912   4.568349   2.086986 C.2        1 UNL1     -0.0208
     61 C         1.438492   5.209   1.810403 C.2        1 UNL1     0.0882
     62 H         2.749767   2.729257   -1.538737 H        1 UNL1     0.0365
     63 H         2.758913   3.764691   -3.298857 H        1 UNL1     0.0576
     64 H         3.274514   1.890214   -5.689938 H        1 UNL1     0.0615
     65 H         2.605988   4.934333   -5.479524 H        1 UNL1     0.0622
     66 H         -0.848173   4.367921   3.806658 H        1 UNL1     0.0645
     67 H         -1.820039   2.527605   3.395657 H        1 UNL1     0.0362
     68 H         -0.518956   1.462175   4.805627 H        1 UNL1     0.0741
     69 H         1.43861   -0.18712   4.11704 H        1 UNL1     0.0359
     70 H         3.101953   0.392208   2.739659 H        1 UNL1     0.0600
     71 H         2.361434   -0.729202   1.037078 H        1 UNL1     0.0348
     72 H         2.866598   1.345916   -0.133709 H        1 UNL1     0.0602
     73 H         -0.542879   4.689772   1.455454 H        1 UNL1     0.0628
     74 H         2.364969   5.09223   2.373645 H        1 UNL1     0.1022
     75 H         1.282742   3.91511   -9.322671 H        1 UNL1     0.0279
     76 H         2.854418   4.503528   -9.69267 H        1 UNL1     0.0279
     77 H         2.587541   2.843025   -9.024236 H        1 UNL1     0.0279
     78 H         -0.047423   4.933772   -8.027496 H        1 UNL1     0.1553
     79 H         -0.180715   3.32438   -6.879317 H        1 UNL1     0.1484
     80 H         -2.130737   2.159404   -3.833051 H        1 UNL1     0.0317
     81 H         -2.379217   3.733072   -4.57585 H        1 UNL1     0.0317
     82 H         -2.149308   2.750059   -6.872485 H        1 UNL1     0.0428
     83 H         -3.419258   1.992936   -5.936699 H        1 UNL1     0.0428
     84 H         0.282812   -0.092251   -6.159878 H        1 UNL1     0.0428
     85 H         0.186092   1.397125   -7.032534 H        1 UNL1     0.0428
     86 H         1.312341   1.461548   -4.807166 H        1 UNL1     0.0317
     87 H         -0.08236   0.946357   -3.975457 H        1 UNL1     0.0317
     88 H         -3.333428   -0.027305   -7.013985 H        1 UNL1     0.0429
     89 H         -2.064059   0.400819   -8.163615 H        1 UNL1     0.0429
     90 H         -0.784319   -1.445438   -6.472848 H        1 UNL1     0.0308
     91 H         -2.375237   -3.404179   -6.323236 H        1 UNL1     0.0233
     92 H         -2.906822   -2.029528   -5.321614 H        1 UNL1     0.0233
     93 H         -3.704142   -2.373935   -6.84157 H        1 UNL1     0.0233
     94 H         -1.598449   -3.041022   -8.50302 H        1 UNL1     0.0233
     95 H         -1.912121   -1.442213   -9.19566 H        1 UNL1     0.0233
     96 H         -0.279128   -1.859114   -8.626872 H        1 UNL1     0.0233
     97 H         1.043868   11.14009   -2.374455 H        1 UNL1     0.0280
     98 H         -0.53911   10.736142   -1.767665 H        1 UNL1     0.0280
     99 H         0.914801   10.25228   -0.844761 H        1 UNL1     0.0280
     100 H         0.954018   10.401469   -4.928267 H        1 UNL1     0.2922
     101 H         4.681923   0.560902   -1.325609 H        1 UNL1     0.0236
     102 H         4.930834   2.312927   -0.958851 H        1 UNL1     0.0236
     103 H         5.229486   1.669761   -2.543982 H        1 UNL1     0.0236
     104 H         2.56343   -0.568186   -2.199557 H        1 UNL1     0.2098
     105 H         0.256791   -1.29618   1.124617 H        1 UNL1     0.0234
     106 H         -0.261889   0.335039   1.635685 H        1 UNL1     0.0234
     107 H         -0.0   0.0   0.0 H        1 UNL1     0.0234
     108 H         2.754641   2.68134   3.102194 H        1 UNL1     0.2098
     109 H         -1.171667   1.271172   1.081317 H        1 UNL1     0.0234
     110 H         -2.218056   2.716153   1.254238 H        1 UNL1     0.0234
     111 H         -0.555234   2.888349   0.81354 H        1 UNL1     0.0234
     112 H         -4.346513   -0.693686   4.400238 H        1 UNL1     0.0342
     113 H         -3.864106   0.850067   3.611346 H        1 UNL1     0.0342
     114 H         -3.468105   -0.698421   2.860787 H        1 UNL1     0.0342
     115 H         2.42226   0.769574   5.760812 H        1 UNL1     0.0234
     116 H         2.55931   2.339224   4.961936 H        1 UNL1     0.0234
     117 H         1.105252   1.842213   5.852072 H        1 UNL1     0.0234
     118 H         -1.519291   6.693375   -0.592491 H        1 UNL1     0.0309
     119 H         -1.192973   5.634642   0.814869 H        1 UNL1     0.0309
     120 H         -1.166917   7.379043   0.951045 H        1 UNL1     0.0309
     121 H         0.684744   4.552426   5.917235 H        1 UNL1     0.0524
     122 H         2.283204   4.941105   5.268611 H        1 UNL1     0.0524
     123 H         0.835647   5.696649   4.556239 H        1 UNL1     0.0524
@<TRIPOS>BOND
     1     1     2    1
     2     1    42    1
     3     2     3    2
     4     3     4    1
     5     4     5    2
     6     5     7    1
     7     6    75    1
     8     6    76    1
     9     6    77    1
    10     7     9   am
    11     9    10    1
    12    10    11    2
    13    10    43    1
    14    11    14    1
    15    11    15    1
    16    12    13   ar
    17    12    27   ar
    18    12    43    1
    19    13    14    1
    20    13    30   ar
    21    14    17    2
    22    15    16    1
    23    16    17    1
    24    16    18    1
    25    16    22    1
    26    18    19    1
    27    19    20    1
    28    20    21    1
    29    21    22    1
    30    23    24    1
    31    23    88    1
    32    23    89    1
    33    24    25    1
    34    24    26    1
    35    24    90    1
    36    25    91    1
    37    25    92    1
    38    25    93    1
    39    26    94    1
    40    26    95    1
    41    26    96    1
    42    27    28   ar
    43    28    29   ar
    44    29    30   ar
    45    29    31    1
    46    30    33    1
    47    31    32    1
    48    32    33    1
    49    32    35    1
    50    34    97    1
    51    34    98    1
    52    34    99    1
    53    35    61    1
    54    36    37    1
    55    36    60    1
    56    37    38    1
    57    38    39    1
    58    39    40    1
    59    40    41    1
    60    41    42    1
    61    45   100    1
    62    47   101    1
    63    47   102    1
    64    47   103    1
    65    48   104    1
    66    49   105    1
    67    49   106    1
    68    49   107    1
    69    50   108    1
    70    51    59    1
    71    52   109    1
    72    52   110    1
    73    52   111    1
    74    53    54    1
    75    54    55    2
    76    54    56    1
    77    56   112    1
    78    56   113    1
    79    56   114    1
    80    57   115    1
    81    57   116    1
    82    57   117    1
    83    58   118    1
    84    58   119    1
    85    58   120    1
    86    59   121    1
    87    59   122    1
    88    59   123    1
    89    60    61    2
    90     1    47    1
    91     1    62    1
    92     2    63    1
    93     3    64    1
    94     4    65    1
    95     5     6    1
    96     7     8    2
    97     9    78    1
    98    15    79    1
    99    18    80    1
   100    18    81    1
   101    19    82    1
   102    19    83    1
   103    20    23    1
   104    21    84    1
   105    21    85    1
   106    22    86    1
   107    22    87    1
   108    27    45    1
   109    28    34    1
   110    32    58    1
   111    33    46    2
   112    36    51    1
   113    36    66    1
   114    37    52    1
   115    37    67    1
   116    38    53    1
   117    38    68    1
   118    42    48    1
   119    42    72    1
   120    43    44    2
   121    60    73    1
   122    61    74    1
   123    39    69    1
   124    39    57    1
   125    40    70    1
   126    40    50    1
   127    41    71    1
   128    41    49    1
