@<TRIPOS>MOLECULE
*****
 123 128 0 0 0
SMALL
GASTEIGER

@<TRIPOS>ATOM
     1 C         5.158864   1.784755   0.447262 C.3        1 UNL1     0.0009
     2 C         6.58156   2.603596   -0.414407 C.2        1 UNL1     -0.0787
     3 C         7.857731   2.516535   -1.092534 C.2        1 UNL1     -0.0649
     4 C         8.719035   3.760069   -1.852886 C.2        1 UNL1     -0.0542
     5 C         9.727962   4.062692   -2.800284 C.2        1 UNL1     0.0115
     6 C         10.852364   3.447833   -3.678346 C.3        1 UNL1     -0.0348
     7 C         9.806841   5.548278   -3.403442 C.2        1 UNL1     0.2441
     8 O         10.628332   6.374812   -3.031259 O.2        1 UNL1     -0.2702
     9 N         9.044059   5.753064   -4.56636 N.am        1 UNL1     -0.2772
     10 C         7.761629   6.129582   -4.239359 C.2        1 UNL1     0.1049
     11 C         6.925678   5.151269   -3.942186 C.2        1 UNL1     0.0801
     12 C         6.465152   7.722874   -2.811808 C.ar        1 UNL1     0.0753
     13 C         5.718529   6.588258   -2.360354 C.ar        1 UNL1     0.0305
     14 C         5.838731   5.285235   -3.010534 C.2        1 UNL1     0.0924
     15 N         7.056357   3.82366   -4.106212 N.pl3        1 UNL1     -0.3170
     16 C         5.793891   3.214449   -3.781717 C.3        1 UNL1     0.1275
     17 N         5.159962   4.162329   -2.793092 N.2        1 UNL1     -0.2557
     18 C         4.928672   3.270857   -5.037072 C.3        1 UNL1     0.0016
     19 C         5.677707   2.595381   -6.174731 C.3        1 UNL1     0.0026
     20 N         5.961428   1.218203   -5.795374 N.3        1 UNL1     -0.3018
     21 C         6.737661   1.059894   -4.563802 C.3        1 UNL1     0.0026
     22 C         5.964645   1.741647   -3.433513 C.3        1 UNL1     0.0016
     23 C         6.401266   0.404987   -6.911557 C.3        1 UNL1     0.0012
     24 C         5.238371   0.149888   -7.883336 C.3        1 UNL1     -0.0339
     25 C         5.295669   1.100177   -9.090698 C.3        1 UNL1     -0.0615
     26 C         5.232095   -1.305581   -8.317331 C.3        1 UNL1     -0.0615
     27 C         6.256497   8.987551   -2.266672 C.ar        1 UNL1     0.1347
     28 C         5.304686   9.247488   -1.296858 C.ar        1 UNL1     0.0342
     29 C         4.615725   8.106719   -0.833023 C.ar        1 UNL1     0.1435
     30 C         4.83959   6.827721   -1.344167 C.ar        1 UNL1     0.0774
     31 O         3.5821   8.210384   0.03062 O.3        1 UNL1     -0.4436
     32 C         2.868008   6.972775   -0.108194 C.3        1 UNL1     0.3143
     33 C         3.883333   5.988505   -0.65275 C.2        1 UNL1     0.2504
     34 C         4.852221   10.609097   -0.848084 C.3        1 UNL1     -0.0327
     35 O         2.523055   6.529829   1.210161 O.2        1 UNL1     -0.4528
     36 C         -0.709606   4.575341   0.838722 C.3        1 UNL1     0.0854
     37 C         -1.014336   3.315073   -0.059269 C.3        1 UNL1     0.0236
     38 C         -1.598269   2.04754   0.730747 C.3        1 UNL1     0.1131
     39 C         -0.856362   1.518266   2.023695 C.3        1 UNL1     0.0200
     40 C         0.806152   1.384628   2.048686 C.3        1 UNL1     0.0661
     41 C         1.75988   0.625997   0.868647 C.3        1 UNL1     0.0091
     42 C         3.45937   1.002457   0.289497 C.3        1 UNL1     0.0661
     43 C         7.405964   7.525153   -3.942311 C.2        1 UNL1     0.2131
     44 O         7.792514   8.428086   -4.662054 O.2        1 UNL1     -0.2851
     45 O         7.056886   10.029772   -2.729911 O.3        1 UNL1     -0.5056
     46 O         3.909238   4.784761   -0.525543 O.2        1 UNL1     -0.2836
     47 C         5.571971   1.35418   1.880415 C.3        1 UNL1     -0.0566
     48 O         3.918848   -0.405588   0.363022 O.3        1 UNL1     -0.3909
     49 C         0.915635   0.390809   -0.364005 C.3        1 UNL1     -0.0577
     50 O         1.401268   2.605709   2.439227 O.3        1 UNL1     -0.3910
     51 O         -0.819085   4.380929   2.230716 O.3        1 UNL1     -0.3753
     52 C         0.020239   3.165346   -1.222104 C.3        1 UNL1     -0.0564
     53 O         -2.201901   1.006716   -0.16627 O.3        1 UNL1     -0.4608
     54 C         -2.423648   -0.302631   0.171917 C.2        1 UNL1     0.3042
     55 O         -1.851556   -1.296406   -0.274133 O.2        1 UNL1     -0.2512
     56 C         -3.452208   -0.478751   1.252546 C.3        1 UNL1     0.0332
     57 C         -1.570162   2.178542   3.293617 C.3        1 UNL1     -0.0567
     58 C         1.78081   7.213077   -1.181407 C.3        1 UNL1     0.0210
     59 C         -1.133714   5.55559   2.977071 C.3        1 UNL1     0.0372
     60 C         0.612569   5.214654   0.597281 C.2        1 UNL1     -0.0208
     61 C         1.530575   5.654075   1.459208 C.2        1 UNL1     0.0882
     62 H         4.676718   2.765216   0.541827 H        1 UNL1     0.0365
     63 H         6.308742   3.655148   -0.303599 H        1 UNL1     0.0576
     64 H         8.320214   1.553633   -1.32065 H        1 UNL1     0.0615
     65 H         8.228693   4.670959   -1.498871 H        1 UNL1     0.0622
     66 H         -1.462533   5.317319   0.537695 H        1 UNL1     0.0645
     67 H         -1.887868   3.619857   -0.661438 H        1 UNL1     0.0362
     68 H         -2.545072   2.476585   1.092696 H        1 UNL1     0.0741
     69 H         -1.178718   0.504263   2.219378 H        1 UNL1     0.0359
     70 H         0.931063   0.722695   2.926925 H        1 UNL1     0.0600
     71 H         1.814879   -0.396   1.292269 H        1 UNL1     0.0348
     72 H         3.359303   1.487181   1.271507 H        1 UNL1     0.0602
     73 H         0.71917   5.415607   -0.439784 H        1 UNL1     0.0628
     74 H         1.52473   5.440342   2.528564 H        1 UNL1     0.1022
     75 H         10.887466   2.339022   -3.550519 H        1 UNL1     0.0279
     76 H         10.741154   3.556131   -4.754902 H        1 UNL1     0.0279
     77 H         11.859395   3.736663   -3.343434 H        1 UNL1     0.0279
     78 H         8.983333   4.884139   -5.093009 H        1 UNL1     0.1553
     79 H         7.718786   3.402192   -4.7311 H        1 UNL1     0.1484
     80 H         3.972843   2.772454   -4.835201 H        1 UNL1     0.0317
     81 H         4.692032   4.306688   -5.302983 H        1 UNL1     0.0317
     82 H         6.602116   3.134078   -6.430046 H        1 UNL1     0.0428
     83 H         5.043713   2.648459   -7.06033 H        1 UNL1     0.0428
     84 H         6.868428   0.016992   -4.258734 H        1 UNL1     0.0428
     85 H         7.764041   1.435649   -4.676362 H        1 UNL1     0.0428
     86 H         6.491479   1.492525   -2.531087 H        1 UNL1     0.0317
     87 H         4.989901   1.2566   -3.300473 H        1 UNL1     0.0317
     88 H         7.188351   0.953974   -7.444854 H        1 UNL1     0.0429
     89 H         6.843984   -0.538596   -6.567425 H        1 UNL1     0.0429
     90 H         4.28945   0.309831   -7.357807 H        1 UNL1     0.0308
     91 H         6.246352   1.008268   -9.624419 H        1 UNL1     0.0233
     92 H         4.474921   0.896003   -9.782286 H        1 UNL1     0.0233
     93 H         5.195078   2.152606   -8.798963 H        1 UNL1     0.0233
     94 H         4.533101   -1.448889   -9.148417 H        1 UNL1     0.0233
     95 H         6.228528   -1.597368   -8.660761 H        1 UNL1     0.0233
     96 H         4.934098   -1.965165   -7.497504 H        1 UNL1     0.0233
     97 H         4.059982   10.551656   -0.107619 H        1 UNL1     0.0280
     98 H         5.662954   11.180186   -0.3771 H        1 UNL1     0.0280
     99 H         4.474991   11.176749   -1.714434 H        1 UNL1     0.0280
     100 H         6.58143   10.778391   -3.044766 H        1 UNL1     0.2922
     101 H         4.713968   0.924307   2.396843 H        1 UNL1     0.0236
     102 H         6.033509   2.15788   2.453155 H        1 UNL1     0.0236
     103 H         6.324823   0.548391   1.869909 H        1 UNL1     0.0236
     104 H         4.34223   -0.53256   1.234571 H        1 UNL1     0.2098
     105 H         0.691069   1.289651   -0.932744 H        1 UNL1     0.0234
     106 H         1.284428   -0.392715   -1.025827 H        1 UNL1     0.0234
     107 H         0.0   -0.0   0.0 H        1 UNL1     0.0234
     108 H         1.206362   3.259879   1.74077 H        1 UNL1     0.2098
     109 H         1.050794   3.070643   -0.852375 H        1 UNL1     0.0234
     110 H         -0.20591   2.330872   -1.894602 H        1 UNL1     0.0234
     111 H         0.020034   4.044807   -1.879747 H        1 UNL1     0.0234
     112 H         -3.565682   -1.541144   1.488746 H        1 UNL1     0.0342
     113 H         -3.210957   0.096366   2.145228 H        1 UNL1     0.0342
     114 H         -4.415952   -0.113617   0.871704 H        1 UNL1     0.0342
     115 H         -2.637557   1.922432   3.341184 H        1 UNL1     0.0234
     116 H         -1.12257   1.899308   4.249514 H        1 UNL1     0.0234
     117 H         -1.617161   3.280219   3.248459 H        1 UNL1     0.0234
     118 H         0.879607   7.690904   -0.758889 H        1 UNL1     0.0309
     119 H         2.137428   7.807331   -2.028689 H        1 UNL1     0.0309
     120 H         1.396032   6.279549   -1.606351 H        1 UNL1     0.0309
     121 H         -0.301709   6.25023   2.864823 H        1 UNL1     0.0524
     122 H         -2.039888   6.059558   2.601702 H        1 UNL1     0.0524
     123 H         -1.276497   5.307978   4.025114 H        1 UNL1     0.0524
@<TRIPOS>BOND
     1     1     2    1
     2     1    42    1
     3     2     3    2
     4     3     4    1
     5     4     5    2
     6     5     7    1
     7     6    75    1
     8     6    76    1
     9     6    77    1
    10     7     9   am
    11     9    10    1
    12    10    11    2
    13    10    43    1
    14    11    14    1
    15    11    15    1
    16    12    13   ar
    17    12    27   ar
    18    12    43    1
    19    13    14    1
    20    13    30   ar
    21    14    17    2
    22    15    16    1
    23    16    17    1
    24    16    18    1
    25    16    22    1
    26    18    19    1
    27    19    20    1
    28    20    21    1
    29    21    22    1
    30    23    24    1
    31    23    88    1
    32    23    89    1
    33    24    25    1
    34    24    26    1
    35    24    90    1
    36    25    91    1
    37    25    92    1
    38    25    93    1
    39    26    94    1
    40    26    95    1
    41    26    96    1
    42    27    28   ar
    43    28    29   ar
    44    29    30   ar
    45    29    31    1
    46    30    33    1
    47    31    32    1
    48    32    33    1
    49    32    35    1
    50    34    97    1
    51    34    98    1
    52    34    99    1
    53    35    61    1
    54    36    37    1
    55    36    60    1
    56    37    38    1
    57    38    39    1
    58    39    40    1
    59    40    41    1
    60    41    42    1
    61    45   100    1
    62    47   101    1
    63    47   102    1
    64    47   103    1
    65    48   104    1
    66    49   105    1
    67    49   106    1
    68    49   107    1
    69    50   108    1
    70    51    59    1
    71    52   109    1
    72    52   110    1
    73    52   111    1
    74    53    54    1
    75    54    55    2
    76    54    56    1
    77    56   112    1
    78    56   113    1
    79    56   114    1
    80    57   115    1
    81    57   116    1
    82    57   117    1
    83    58   118    1
    84    58   119    1
    85    58   120    1
    86    59   121    1
    87    59   122    1
    88    59   123    1
    89    60    61    2
    90     1    47    1
    91     1    62    1
    92     2    63    1
    93     3    64    1
    94     4    65    1
    95     5     6    1
    96     7     8    2
    97     9    78    1
    98    15    79    1
    99    18    80    1
   100    18    81    1
   101    19    82    1
   102    19    83    1
   103    20    23    1
   104    21    84    1
   105    21    85    1
   106    22    86    1
   107    22    87    1
   108    27    45    1
   109    28    34    1
   110    32    58    1
   111    33    46    2
   112    36    51    1
   113    36    66    1
   114    37    52    1
   115    37    67    1
   116    38    53    1
   117    38    68    1
   118    42    48    1
   119    42    72    1
   120    43    44    2
   121    60    73    1
   122    61    74    1
   123    39    69    1
   124    39    57    1
   125    40    70    1
   126    40    50    1
   127    41    71    1
   128    41    49    1
