@<TRIPOS>MOLECULE
*****
 123 128 0 0 0
SMALL
GASTEIGER

@<TRIPOS>ATOM
     1 C         1.765475   2.97045   4.249564 C.3        1 UNL1     0.0009
     2 C         2.309045   4.643579   4.834549 C.2        1 UNL1     -0.0787
     3 C         3.364986   5.567579   5.191285 C.2        1 UNL1     -0.0649
     4 C         3.222217   7.206011   5.593175 C.2        1 UNL1     -0.0542
     5 C         3.909994   8.440222   5.696921 C.2        1 UNL1     0.0115
     6 C         5.314893   9.102448   5.66471 C.3        1 UNL1     -0.0348
     7 C         3.059956   9.800744   5.755261 C.2        1 UNL1     0.2441
     8 O         2.857434   10.41482   6.793732 O.2        1 UNL1     -0.2702
     9 N         2.785814   10.378094   4.503197 N.am        1 UNL1     -0.2772
     10 C         1.620557   9.864204   3.982222 C.2        1 UNL1     0.1049
     11 C         1.724625   8.707755   3.352924 C.2        1 UNL1     0.0801
     12 C         -0.765429   9.380531   4.557082 C.ar        1 UNL1     0.0753
     13 C         -0.538563   8.061706   4.049302 C.ar        1 UNL1     0.0305
     14 C         0.676165   7.724747   3.310421 C.2        1 UNL1     0.0924
     15 N         2.818636   8.039224   2.949522 N.pl3        1 UNL1     -0.3170
     16 C         2.382348   6.918226   2.160048 C.3        1 UNL1     0.1275
     17 N         1.006377   6.5958   2.689642 N.2        1 UNL1     -0.2557
     18 C         2.180099   7.420986   0.733854 C.3        1 UNL1     0.0016
     19 C         3.474002   8.060132   0.255422 C.3        1 UNL1     0.0026
     20 N         4.53666   7.066018   0.314792 N.3        1 UNL1     -0.3018
     21 C         4.764895   6.478097   1.636392 C.3        1 UNL1     0.0026
     22 C         3.453781   5.837754   2.095558 C.3        1 UNL1     0.0016
     23 C         5.73269   7.476033   -0.39376 C.3        1 UNL1     0.0012
     24 C         5.48769   7.472864   -1.910903 C.3        1 UNL1     -0.0339
     25 C         5.193313   8.88768   -2.435969 C.3        1 UNL1     -0.0615
     26 C         6.67029   6.845269   -2.628094 C.3        1 UNL1     -0.0615
     27 C         -1.975748   9.725914   5.153703 C.ar        1 UNL1     0.1347
     28 C         -3.043383   8.852872   5.263273 C.ar        1 UNL1     0.0342
     29 C         -2.78003   7.546041   4.800671 C.ar        1 UNL1     0.1435
     30 C         -1.560033   7.175613   4.233563 C.ar        1 UNL1     0.0774
     31 O         -3.753167   6.611108   4.738118 O.3        1 UNL1     -0.4436
     32 C         -3.255232   5.630544   3.815389 C.3        1 UNL1     0.3143
     33 C         -1.749126   5.796203   3.835771 C.2        1 UNL1     0.2504
     34 C         -4.446342   9.220951   5.658651 C.3        1 UNL1     -0.0327
     35 O         -3.54057   4.340372   4.369726 O.2        1 UNL1     -0.4528
     36 C         -4.012445   2.015719   1.406381 C.3        1 UNL1     0.0854
     37 C         -3.017998   1.691983   0.225791 C.3        1 UNL1     0.0236
     38 C         -2.694866   0.134462   0.022177 C.3        1 UNL1     0.1131
     39 C         -2.236803   -0.740447   1.257888 C.3        1 UNL1     0.0200
     40 C         -1.117559   -0.148335   2.343768 C.3        1 UNL1     0.0661
     41 C         0.376151   0.55193   1.948713 C.3        1 UNL1     0.0091
     42 C         1.328117   1.877101   2.787215 C.3        1 UNL1     0.0661
     43 C         0.298157   10.393891   4.346975 C.2        1 UNL1     0.2131
     44 O         0.096592   11.594647   4.364114 O.2        1 UNL1     -0.2851
     45 O         -2.0987   11.017058   5.662886 O.3        1 UNL1     -0.5056
     46 O         -0.896856   4.969563   3.5988 O.2        1 UNL1     -0.2836
     47 C         1.90639   1.927975   5.391216 C.3        1 UNL1     -0.0566
     48 O         2.613298   1.138497   2.743749 O.3        1 UNL1     -0.3909
     49 C         0.391882   0.865913   0.469301 C.3        1 UNL1     -0.0577
     50 O         -1.752288   0.606367   3.356323 O.3        1 UNL1     -0.3910
     51 O         -4.354409   0.930624   2.238883 O.3        1 UNL1     -0.3753
     52 C         -1.921548   2.795746   0.069418 C.3        1 UNL1     -0.0564
     53 O         -2.045194   -0.177001   -1.29435 O.3        1 UNL1     -0.4608
     54 C         -1.332565   -1.311976   -1.580569 C.2        1 UNL1     0.3042
     55 O         -0.123221   -1.401995   -1.78847 O.2        1 UNL1     -0.2512
     56 C         -2.164538   -2.562757   -1.571555 C.3        1 UNL1     0.0332
     57 C         -3.537309   -1.461644   1.846728 C.3        1 UNL1     -0.0567
     58 C         -3.782854   6.0359   2.419384 C.3        1 UNL1     0.0210
     59 C         -5.62503   1.042857   2.878251 C.3        1 UNL1     0.0372
     60 C         -3.585818   3.125662   2.301466 C.2        1 UNL1     -0.0208
     61 C         -3.593567   3.21468   3.632165 C.2        1 UNL1     0.0882
     62 H         0.726619   3.321115   4.272459 H        1 UNL1     0.0365
     63 H         1.343359   5.1152   5.028182 H        1 UNL1     0.0576
     64 H         4.418761   5.307775   5.06813 H        1 UNL1     0.0615
     65 H         2.151393   7.338645   5.769892 H        1 UNL1     0.0622
     66 H         -4.927775   2.365174   0.908286 H        1 UNL1     0.0645
     67 H         -3.600668   1.916091   -0.68461 H        1 UNL1     0.0362
     68 H         -3.700832   -0.229837   -0.236357 H        1 UNL1     0.0741
     69 H         -1.758447   -1.638468   0.89027 H        1 UNL1     0.0359
     70 H         -0.82154   -1.089762   2.844916 H        1 UNL1     0.0600
     71 H         1.026007   -0.34426   1.987298 H        1 UNL1     0.0348
     72 H         0.621111   1.491391   3.536004 H        1 UNL1     0.0602
     73 H         -3.356291   3.979632   1.713842 H        1 UNL1     0.0628
     74 H         -3.761046   2.373372   4.305507 H        1 UNL1     0.1022
     75 H         6.103733   8.338658   5.46126 H        1 UNL1     0.0279
     76 H         5.488594   9.83376   4.878529 H        1 UNL1     0.0279
     77 H         5.628895   9.481748   6.648191 H        1 UNL1     0.0279
     78 H         3.536378   10.156099   3.852467 H        1 UNL1     0.1553
     79 H         3.721434   8.463226   2.839471 H        1 UNL1     0.1484
     80 H         1.889839   6.577885   0.095343 H        1 UNL1     0.0317
     81 H         1.360643   8.146217   0.687131 H        1 UNL1     0.0317
     82 H         3.731488   8.950612   0.847586 H        1 UNL1     0.0428
     83 H         3.30705   8.413289   -0.762643 H        1 UNL1     0.0428
     84 H         5.512233   5.678537   1.637657 H        1 UNL1     0.0428
     85 H         5.161272   7.214908   2.34865 H        1 UNL1     0.0428
     86 H         3.691716   5.306157   2.99821 H        1 UNL1     0.0317
     87 H         3.162644   5.040521   1.400752 H        1 UNL1     0.0317
     88 H         5.980598   8.499062   -0.081913 H        1 UNL1     0.0429
     89 H         6.589445   6.842783   -0.129679 H        1 UNL1     0.0429
     90 H         4.62703   6.831366   -2.134416 H        1 UNL1     0.0308
     91 H         6.008101   9.577902   -2.197606 H        1 UNL1     0.0233
     92 H         5.03963   8.874112   -3.517545 H        1 UNL1     0.0233
     93 H         4.27967   9.312269   -2.002592 H        1 UNL1     0.0233
     94 H         6.589434   7.01248   -3.707602 H        1 UNL1     0.0233
     95 H         7.601788   7.303949   -2.284749 H        1 UNL1     0.0233
     96 H         6.720111   5.767734   -2.448085 H        1 UNL1     0.0233
     97 H         -5.116229   8.366893   5.625993 H        1 UNL1     0.0280
     98 H         -4.499499   9.605494   6.685567 H        1 UNL1     0.0280
     99 H         -4.83371   9.990457   4.970972 H        1 UNL1     0.0280
     100 H         -2.848622   11.49163   5.349805 H        1 UNL1     0.2922
     101 H         1.53309   0.961106   5.054365 H        1 UNL1     0.0236
     102 H         1.437677   2.245641   6.322012 H        1 UNL1     0.0236
     103 H         2.960971   1.74395   5.656144 H        1 UNL1     0.0236
     104 H         2.707667   0.66065   3.590937 H        1 UNL1     0.2098
     105 H         -0.230254   1.710084   0.182713 H        1 UNL1     0.0234
     106 H         1.386775   0.965351   0.035447 H        1 UNL1     0.0234
     107 H         0.0   0.0   -0.0 H        1 UNL1     0.0234
     108 H         -2.139663   1.395251   2.930446 H        1 UNL1     0.2098
     109 H         -1.324837   2.921792   0.983617 H        1 UNL1     0.0234
     110 H         -1.254936   2.622603   -0.782283 H        1 UNL1     0.0234
     111 H         -2.364128   3.779825   -0.134689 H        1 UNL1     0.0234
     112 H         -1.533752   -3.430851   -1.785719 H        1 UNL1     0.0342
     113 H         -2.700455   -2.69139   -0.632359 H        1 UNL1     0.0342
     114 H         -2.91184   -2.483527   -2.373071 H        1 UNL1     0.0342
     115 H         -4.033598   -2.088051   1.092739 H        1 UNL1     0.0234
     116 H         -3.340516   -2.089954   2.717676 H        1 UNL1     0.0234
     117 H         -4.34842   -0.760663   2.108771 H        1 UNL1     0.0234
     118 H         -4.814077   5.681189   2.24686 H        1 UNL1     0.0309
     119 H         -3.740733   7.11505   2.240885 H        1 UNL1     0.0309
     120 H         -3.216417   5.571473   1.604789 H        1 UNL1     0.0309
     121 H         -5.58071   1.898153   3.551944 H        1 UNL1     0.0524
     122 H         -6.440241   1.228524   2.159227 H        1 UNL1     0.0524
     123 H         -5.846356   0.137374   3.436111 H        1 UNL1     0.0524
@<TRIPOS>BOND
     1     1     2    1
     2     1    42    1
     3     2     3    2
     4     3     4    1
     5     4     5    2
     6     5     7    1
     7     6    75    1
     8     6    76    1
     9     6    77    1
    10     7     9   am
    11     9    10    1
    12    10    11    2
    13    10    43    1
    14    11    14    1
    15    11    15    1
    16    12    13   ar
    17    12    27   ar
    18    12    43    1
    19    13    14    1
    20    13    30   ar
    21    14    17    2
    22    15    16    1
    23    16    17    1
    24    16    18    1
    25    16    22    1
    26    18    19    1
    27    19    20    1
    28    20    21    1
    29    21    22    1
    30    23    24    1
    31    23    88    1
    32    23    89    1
    33    24    25    1
    34    24    26    1
    35    24    90    1
    36    25    91    1
    37    25    92    1
    38    25    93    1
    39    26    94    1
    40    26    95    1
    41    26    96    1
    42    27    28   ar
    43    28    29   ar
    44    29    30   ar
    45    29    31    1
    46    30    33    1
    47    31    32    1
    48    32    33    1
    49    32    35    1
    50    34    97    1
    51    34    98    1
    52    34    99    1
    53    35    61    1
    54    36    37    1
    55    36    60    1
    56    37    38    1
    57    38    39    1
    58    39    40    1
    59    40    41    1
    60    41    42    1
    61    45   100    1
    62    47   101    1
    63    47   102    1
    64    47   103    1
    65    48   104    1
    66    49   105    1
    67    49   106    1
    68    49   107    1
    69    50   108    1
    70    51    59    1
    71    52   109    1
    72    52   110    1
    73    52   111    1
    74    53    54    1
    75    54    55    2
    76    54    56    1
    77    56   112    1
    78    56   113    1
    79    56   114    1
    80    57   115    1
    81    57   116    1
    82    57   117    1
    83    58   118    1
    84    58   119    1
    85    58   120    1
    86    59   121    1
    87    59   122    1
    88    59   123    1
    89    60    61    2
    90     1    47    1
    91     1    62    1
    92     2    63    1
    93     3    64    1
    94     4    65    1
    95     5     6    1
    96     7     8    2
    97     9    78    1
    98    15    79    1
    99    18    80    1
   100    18    81    1
   101    19    82    1
   102    19    83    1
   103    20    23    1
   104    21    84    1
   105    21    85    1
   106    22    86    1
   107    22    87    1
   108    27    45    1
   109    28    34    1
   110    32    58    1
   111    33    46    2
   112    36    51    1
   113    36    66    1
   114    37    52    1
   115    37    67    1
   116    38    53    1
   117    38    68    1
   118    42    48    1
   119    42    72    1
   120    43    44    2
   121    60    73    1
   122    61    74    1
   123    39    69    1
   124    39    57    1
   125    40    70    1
   126    40    50    1
   127    41    71    1
   128    41    49    1
