@<TRIPOS>MOLECULE
*****
 123 128 0 0 0
SMALL
GASTEIGER

@<TRIPOS>ATOM
     1 C         3.620554   3.34349   1.877069 C.3        1 UNL1     0.0009
     2 C         4.375466   4.994383   1.500642 C.2        1 UNL1     -0.0787
     3 C         5.518999   5.793985   1.11462 C.2        1 UNL1     -0.0649
     4 C         5.564277   7.453869   0.784329 C.2        1 UNL1     -0.0542
     5 C         6.288308   8.491536   0.147065 C.2        1 UNL1     0.0115
     6 C         7.630005   8.840479   -0.553942 C.3        1 UNL1     -0.0348
     7 C         5.545189   9.880297   -0.162942 C.2        1 UNL1     0.2441
     8 O         5.704116   10.885913   0.515294 O.2        1 UNL1     -0.2702
     9 N         4.904709   9.939361   -1.412922 N.am        1 UNL1     -0.2772
     10 C         3.61836   9.46048   -1.31648 C.2        1 UNL1     0.1049
     11 C         3.479312   8.148696   -1.380591 C.2        1 UNL1     0.0801
     12 C         1.526064   9.654596   0.040704 C.ar        1 UNL1     0.0753
     13 C         1.536897   8.225424   0.117901 C.ar        1 UNL1     0.0305
     14 C         2.441179   7.42173   -0.70149 C.2        1 UNL1     0.0924
     15 N         4.365623   7.202378   -1.734798 N.pl3        1 UNL1     -0.3170
     16 C         3.664775   5.947659   -1.803678 C.3        1 UNL1     0.1275
     17 N         2.519943   6.100507   -0.832225 N.2        1 UNL1     -0.2557
     18 C         3.034487   5.857317   -3.19014 C.3        1 UNL1     0.0016
     19 C         4.128016   6.02368   -4.233264 C.3        1 UNL1     0.0026
     20 N         5.121787   4.976689   -4.04024 N.3        1 UNL1     -0.3018
     21 C         5.740616   4.943847   -2.713462 C.3        1 UNL1     0.0026
     22 C         4.624602   4.771486   -1.68162 C.3        1 UNL1     0.0016
     23 C         6.041901   4.860258   -5.154007 C.3        1 UNL1     0.0012
     24 C         5.325946   4.285201   -6.386271 C.3        1 UNL1     -0.0339
     25 C         6.266163   3.39996   -7.220774 C.3        1 UNL1     -0.0615
     26 C         4.079618   3.529619   -5.959022 C.3        1 UNL1     -0.0615
     27 C         0.580864   10.407657   0.733246 C.ar        1 UNL1     0.1347
     28 C         -0.423426   9.844237   1.500063 C.ar        1 UNL1     0.0342
     29 C         -0.363241   8.438036   1.600773 C.ar        1 UNL1     0.1435
     30 C         0.599736   7.672761   0.941798 C.ar        1 UNL1     0.0774
     31 O         -1.334881   7.733683   2.221103 O.3        1 UNL1     -0.4436
     32 C         -1.188781   6.396032   1.720884 C.3        1 UNL1     0.3143
     33 C         0.249684   6.302728   1.253631 C.2        1 UNL1     0.2504
     34 C         -1.614551   10.568453   2.062941 C.3        1 UNL1     -0.0327
     35 O         -1.323542   5.506961   2.836521 O.2        1 UNL1     -0.4528
     36 C         -2.789758   2.297185   1.438082 C.3        1 UNL1     0.0854
     37 C         -2.234565   1.363568   0.294559 C.3        1 UNL1     0.0236
     38 C         -2.043182   -0.173433   0.710185 C.3        1 UNL1     0.1131
     39 C         -1.243205   -0.537353   2.02543 C.3        1 UNL1     0.0200
     40 C         0.18219   0.247778   2.391838 C.3        1 UNL1     0.0661
     41 C         1.493528   0.469565   1.338836 C.3        1 UNL1     0.0091
     42 C         2.705014   1.841961   1.21953 C.3        1 UNL1     0.0661
     43 C         2.498945   10.304287   -0.872347 C.2        1 UNL1     0.2131
     44 O         2.351852   11.424816   -1.325685 O.2        1 UNL1     -0.2851
     45 O         0.668028   11.795211   0.640852 O.3        1 UNL1     -0.5056
     46 O         0.955021   5.321649   1.17723 O.2        1 UNL1     -0.2836
     47 C         4.08476   2.843602   3.27156 C.3        1 UNL1     -0.0566
     48 O         3.884946   0.946233   1.152093 O.3        1 UNL1     -0.3909
     49 C         1.04672   0.151656   -0.070699 C.3        1 UNL1     -0.0577
     50 O         -0.072065   1.441316   3.104962 O.3        1 UNL1     -0.3910
     51 O         -2.882904   1.714386   2.718355 O.3        1 UNL1     -0.3753
     52 C         -1.210529   2.110819   -0.620818 C.3        1 UNL1     -0.0564
     53 O         -1.857535   -1.093577   -0.460796 O.3        1 UNL1     -0.4608
     54 C         -1.022968   -2.18001   -0.493831 C.2        1 UNL1     0.3042
     55 O         0.078685   -2.259329   -1.035964 O.2        1 UNL1     -0.2512
     56 C         -1.538787   -3.358412   0.282065 C.3        1 UNL1     0.0332
     57 C         -2.310406   -0.731815   3.200778 C.3        1 UNL1     -0.0567
     58 C         -2.120768   6.284399   0.491874 C.3        1 UNL1     0.0210
     59 C         -4.212437   1.43521   3.154554 C.3        1 UNL1     0.0372
     60 C         -2.064739   3.586237   1.604973 C.2        1 UNL1     -0.0208
     61 C         -1.64491   4.205231   2.709208 C.2        1 UNL1     0.0882
     62 H         2.654997   3.84098   2.028446 H        1 UNL1     0.0365
     63 H         3.537529   5.657483   1.725656 H        1 UNL1     0.0576
     64 H         6.469622   5.335234   0.833601 H        1 UNL1     0.0615
     65 H         4.610521   7.822707   1.171355 H        1 UNL1     0.0622
     66 H         -3.804472   2.562545   1.109471 H        1 UNL1     0.0645
     67 H         -3.069645   1.294258   -0.424049 H        1 UNL1     0.0362
     68 H         -3.090175   -0.438226   0.922819 H        1 UNL1     0.0741
     69 H         -0.936004   -1.573221   1.970541 H        1 UNL1     0.0359
     70 H         0.59231   -0.445799   3.150662 H        1 UNL1     0.0600
     71 H         2.09277   -0.42907   1.58444 H        1 UNL1     0.0348
     72 H         2.261739   1.915159   2.223255 H        1 UNL1     0.0602
     73 H         -2.007401   4.078781   0.666165 H        1 UNL1     0.0628
     74 H         -1.615734   3.748387   3.698995 H        1 UNL1     0.1022
     75 H         8.494664   8.469841   0.047744 H        1 UNL1     0.0279
     76 H         7.804838   8.37991   -1.523673 H        1 UNL1     0.0279
     77 H         7.82932   9.921896   -0.576584 H        1 UNL1     0.0279
     78 H         5.401092   9.351908   -2.07969 H        1 UNL1     0.1553
     79 H         5.199265   7.389118   -2.261203 H        1 UNL1     0.1484
     80 H         2.528985   4.889264   -3.290684 H        1 UNL1     0.0317
     81 H         2.266531   6.627101   -3.321768 H        1 UNL1     0.0317
     82 H         4.589207   7.021077   -4.184125 H        1 UNL1     0.0428
     83 H         3.656522   5.957793   -5.214285 H        1 UNL1     0.0428
     84 H         6.423387   4.100835   -2.568665 H        1 UNL1     0.0428
     85 H         6.366756   5.828435   -2.532439 H        1 UNL1     0.0428
     86 H         5.12083   4.618429   -0.741237 H        1 UNL1     0.0317
     87 H         4.101785   3.822093   -1.850177 H        1 UNL1     0.0317
     88 H         6.408871   5.865219   -5.40034 H        1 UNL1     0.0429
     89 H         6.917439   4.254822   -4.886321 H        1 UNL1     0.0429
     90 H         4.974346   5.111425   -7.015512 H        1 UNL1     0.0308
     91 H         6.828945   2.708747   -6.586264 H        1 UNL1     0.0233
     92 H         5.702182   2.82839   -7.961613 H        1 UNL1     0.0233
     93 H         7.002502   3.986803   -7.783141 H        1 UNL1     0.0233
     94 H         3.787909   2.813087   -6.734472 H        1 UNL1     0.0233
     95 H         4.278309   2.97015   -5.040611 H        1 UNL1     0.0233
     96 H         3.241202   4.209554   -5.783765 H        1 UNL1     0.0233
     97 H         -2.551458   10.143792   1.714948 H        1 UNL1     0.0280
     98 H         -1.650088   10.517168   3.159008 H        1 UNL1     0.0280
     99 H         -1.580677   11.627219   1.758045 H        1 UNL1     0.0280
     100 H         1.527493   12.144844   0.798007 H        1 UNL1     0.2922
     101 H         3.276871   2.964086   3.992986 H        1 UNL1     0.0236
     102 H         5.008194   3.312691   3.609507 H        1 UNL1     0.0236
     103 H         4.302034   1.762406   3.272684 H        1 UNL1     0.0236
     104 H         3.564549   0.053602   0.916453 H        1 UNL1     0.2098
     105 H         1.219501   0.950473   -0.787532 H        1 UNL1     0.0234
     106 H         1.41758   -0.795027   -0.463357 H        1 UNL1     0.0234
     107 H         0.0   -0.0   0.0 H        1 UNL1     0.0234
     108 H         -0.425662   2.090715   2.466983 H        1 UNL1     0.2098
     109 H         -1.658876   2.978498   -1.124634 H        1 UNL1     0.0234
     110 H         -0.305647   2.423342   -0.088595 H        1 UNL1     0.0234
     111 H         -0.836364   1.461573   -1.42358 H        1 UNL1     0.0234
     112 H         -0.818597   -4.180734   0.232483 H        1 UNL1     0.0342
     113 H         -1.766765   -3.100468   1.315184 H        1 UNL1     0.0342
     114 H         -2.47105   -3.69831   -0.189654 H        1 UNL1     0.0342
     115 H         -3.2749   -1.095674   2.820588 H        1 UNL1     0.0234
     116 H         -1.986539   -1.418558   3.985344 H        1 UNL1     0.0234
     117 H         -2.613808   0.214618   3.680521 H        1 UNL1     0.0234
     118 H         -2.985045   5.625192   0.685466 H        1 UNL1     0.0309
     119 H         -2.482748   7.254804   0.13763 H        1 UNL1     0.0309
     120 H         -1.630123   5.812126   -0.366224 H        1 UNL1     0.0309
     121 H         -4.209849   1.440388   4.244198 H        1 UNL1     0.0524
     122 H         -4.931849   2.201364   2.82065 H        1 UNL1     0.0524
     123 H         -4.53336   0.465367   2.785087 H        1 UNL1     0.0524
@<TRIPOS>BOND
     1     1     2    1
     2     1    42    1
     3     2     3    2
     4     3     4    1
     5     4     5    2
     6     5     7    1
     7     6    75    1
     8     6    76    1
     9     6    77    1
    10     7     9   am
    11     9    10    1
    12    10    11    2
    13    10    43    1
    14    11    14    1
    15    11    15    1
    16    12    13   ar
    17    12    27   ar
    18    12    43    1
    19    13    14    1
    20    13    30   ar
    21    14    17    2
    22    15    16    1
    23    16    17    1
    24    16    18    1
    25    16    22    1
    26    18    19    1
    27    19    20    1
    28    20    21    1
    29    21    22    1
    30    23    24    1
    31    23    88    1
    32    23    89    1
    33    24    25    1
    34    24    26    1
    35    24    90    1
    36    25    91    1
    37    25    92    1
    38    25    93    1
    39    26    94    1
    40    26    95    1
    41    26    96    1
    42    27    28   ar
    43    28    29   ar
    44    29    30   ar
    45    29    31    1
    46    30    33    1
    47    31    32    1
    48    32    33    1
    49    32    35    1
    50    34    97    1
    51    34    98    1
    52    34    99    1
    53    35    61    1
    54    36    37    1
    55    36    60    1
    56    37    38    1
    57    38    39    1
    58    39    40    1
    59    40    41    1
    60    41    42    1
    61    45   100    1
    62    47   101    1
    63    47   102    1
    64    47   103    1
    65    48   104    1
    66    49   105    1
    67    49   106    1
    68    49   107    1
    69    50   108    1
    70    51    59    1
    71    52   109    1
    72    52   110    1
    73    52   111    1
    74    53    54    1
    75    54    55    2
    76    54    56    1
    77    56   112    1
    78    56   113    1
    79    56   114    1
    80    57   115    1
    81    57   116    1
    82    57   117    1
    83    58   118    1
    84    58   119    1
    85    58   120    1
    86    59   121    1
    87    59   122    1
    88    59   123    1
    89    60    61    2
    90     1    47    1
    91     1    62    1
    92     2    63    1
    93     3    64    1
    94     4    65    1
    95     5     6    1
    96     7     8    2
    97     9    78    1
    98    15    79    1
    99    18    80    1
   100    18    81    1
   101    19    82    1
   102    19    83    1
   103    20    23    1
   104    21    84    1
   105    21    85    1
   106    22    86    1
   107    22    87    1
   108    27    45    1
   109    28    34    1
   110    32    58    1
   111    33    46    2
   112    36    51    1
   113    36    66    1
   114    37    52    1
   115    37    67    1
   116    38    53    1
   117    38    68    1
   118    42    48    1
   119    42    72    1
   120    43    44    2
   121    60    73    1
   122    61    74    1
   123    39    69    1
   124    39    57    1
   125    40    70    1
   126    40    50    1
   127    41    71    1
   128    41    49    1
