@<TRIPOS>MOLECULE
*****
 123 128 0 0 0
SMALL
GASTEIGER

@<TRIPOS>ATOM
     1 C         2.395852   3.157319   -3.645704 C.3        1 UNL1     0.0009
     2 C         2.734723   3.322399   -5.460905 C.2        1 UNL1     -0.0787
     3 C         3.66308   3.307998   -6.571757 C.2        1 UNL1     -0.0649
     4 C         3.311285   3.42778   -8.223498 C.2        1 UNL1     -0.0542
     5 C         3.790441   3.180323   -9.533556 C.2        1 UNL1     0.0115
     6 C         5.042973   2.773301   -10.357462 C.3        1 UNL1     -0.0348
     7 C         2.743755   3.147298   -10.750251 C.2        1 UNL1     0.2441
     8 O         2.602612   4.077578   -11.532034 O.2        1 UNL1     -0.2702
     9 N         2.188556   1.883338   -11.015414 N.am        1 UNL1     -0.2772
     10 C         1.05996   1.685192   -10.25362 C.2        1 UNL1     0.1049
     11 C         1.258596   1.265969   -9.017086 C.2        1 UNL1     0.0801
     12 C         -1.094961   2.763892   -9.582759 C.ar        1 UNL1     0.0753
     13 C         -0.730955   2.468894   -8.230322 C.ar        1 UNL1     0.0305
     14 C         0.395479   1.593344   -7.914711 C.2        1 UNL1     0.0924
     15 N         2.374284   0.796393   -8.432905 N.pl3        1 UNL1     -0.3170
     16 C         2.0162   0.314725   -7.125225 C.3        1 UNL1     0.1275
     17 N         0.811068   1.136079   -6.73695 N.2        1 UNL1     -0.2557
     18 C         1.516865   -1.117262   -7.2919 C.3        1 UNL1     0.0016
     19 C         2.596884   -1.931145   -7.986697 C.3        1 UNL1     0.0026
     20 N         3.807332   -1.889122   -7.177947 N.3        1 UNL1     -0.3018
     21 C         4.330228   -0.54766   -6.910685 C.3        1 UNL1     0.0026
     22 C         3.230699   0.250963   -6.208452 C.3        1 UNL1     0.0016
     23 C         4.79517   -2.866322   -7.590138 C.3        1 UNL1     0.0012
     24 C         4.324962   -4.287384   -7.241937 C.3        1 UNL1     -0.0339
     25 C         5.507506   -5.19388   -6.862578 C.3        1 UNL1     -0.0615
     26 C         3.283682   -4.235413   -6.137485 C.3        1 UNL1     -0.0615
     27 C         -2.240277   3.499617   -9.87785 C.ar        1 UNL1     0.1347
     28 C         -3.117209   3.957701   -8.910793 C.ar        1 UNL1     0.0342
     29 C         -2.712762   3.697544   -7.584179 C.ar        1 UNL1     0.1435
     30 C         -1.549314   2.993082   -7.272183 C.ar        1 UNL1     0.0774
     31 O         -3.513633   3.983125   -6.53439 O.3        1 UNL1     -0.4436
     32 C         -3.005723   3.176661   -5.460837 C.3        1 UNL1     0.3143
     33 C         -1.563462   2.891311   -5.827812 C.2        1 UNL1     0.2504
     34 C         -4.484735   4.530036   -9.160605 C.3        1 UNL1     -0.0327
     35 O         -2.982872   3.996713   -4.285999 O.2        1 UNL1     -0.4528
     36 C         -3.506751   1.636917   -1.359397 C.3        1 UNL1     0.0854
     37 C         -2.664654   0.372309   -0.936123 C.3        1 UNL1     0.0236
     38 C         -2.120401   0.396654   0.572168 C.3        1 UNL1     0.1131
     39 C         -1.33877   1.664727   1.10444 C.3        1 UNL1     0.0200
     40 C         -0.181651   2.403224   0.15674 C.3        1 UNL1     0.0661
     41 C         1.095497   1.622417   -0.641287 C.3        1 UNL1     0.0091
     42 C         1.929151   2.020499   -2.226201 C.3        1 UNL1     0.0661
     43 C         -0.26084   2.184129   -10.664598 C.2        1 UNL1     0.2131
     44 O         -0.65551   2.021512   -11.805005 O.2        1 UNL1     -0.2851
     45 O         -2.498227   3.781961   -11.217694 O.3        1 UNL1     -0.5056
     46 O         -0.631291   2.655223   -5.092167 O.2        1 UNL1     -0.2836
     47 C         2.882253   4.422585   -2.889068 C.3        1 UNL1     -0.0566
     48 O         3.297826   1.876492   -1.673837 O.3        1 UNL1     -0.3909
     49 C         0.831917   0.133117   -0.643284 C.3        1 UNL1     -0.0577
     50 O         -0.771243   3.362143   -0.697998 O.3        1 UNL1     -0.3910
     51 O         -3.530816   2.699287   -0.432994 O.3        1 UNL1     -0.3753
     52 C         -1.805435   -0.177787   -2.121065 C.3        1 UNL1     -0.0564
     53 O         -1.636949   -0.938544   1.057809 O.3        1 UNL1     -0.4608
     54 C         -1.003714   -1.168969   2.25106 C.2        1 UNL1     0.3042
     55 O         0.199328   -1.349223   2.435551 O.2        1 UNL1     -0.2512
     56 C         -1.924294   -1.131101   3.437572 C.3        1 UNL1     0.0332
     57 C         -2.394594   2.601294   1.856936 C.3        1 UNL1     -0.0567
     58 C         -3.801034   1.85084   -5.495624 C.3        1 UNL1     0.0210
     59 C         -4.689185   3.52944   -0.502951 C.3        1 UNL1     0.0372
     60 C         -3.140069   2.224418   -2.676799 C.2        1 UNL1     -0.0208
     61 C         -2.95892   3.496019   -3.035912 C.2        1 UNL1     0.0882
     62 H         1.32887   3.306218   -3.85086 H        1 UNL1     0.0365
     63 H         1.744882   3.601195   -5.82827 H        1 UNL1     0.0576
     64 H         4.714046   3.043118   -6.436045 H        1 UNL1     0.0615
     65 H         2.273196   3.770424   -8.244673 H        1 UNL1     0.0622
     66 H         -4.532934   1.259892   -1.472741 H        1 UNL1     0.0645
     67 H         -3.408946   -0.44148   -0.887769 H        1 UNL1     0.0362
     68 H         -3.078741   0.396149   1.11356 H        1 UNL1     0.0741
     69 H         -0.778814   1.383538   1.986364 H        1 UNL1     0.0359
     70 H         0.340903   3.002879   0.926422 H        1 UNL1     0.0600
     71 H         1.884327   1.702175   0.13224 H        1 UNL1     0.0348
     72 H         1.419686   2.942847   -1.911504 H        1 UNL1     0.0602
     73 H         -3.149361   1.460866   -3.414464 H        1 UNL1     0.0628
     74 H         -2.878202   4.328805   -2.336492 H        1 UNL1     0.1022
     75 H         5.933487   3.365015   -10.035138 H        1 UNL1     0.0279
     76 H         5.388124   1.748403   -10.241163 H        1 UNL1     0.0279
     77 H         4.965758   3.057596   -11.417138 H        1 UNL1     0.0279
     78 H         2.857163   1.157138   -10.767067 H        1 UNL1     0.1553
     79 H         3.165757   0.448752   -8.942462 H        1 UNL1     0.1484
     80 H         1.277589   -1.529697   -6.304271 H        1 UNL1     0.0317
     81 H         0.590222   -1.143135   -7.875265 H        1 UNL1     0.0317
     82 H         2.789217   -1.566041   -9.006314 H        1 UNL1     0.0428
     83 H         2.219408   -2.948188   -8.097088 H        1 UNL1     0.0428
     84 H         5.192117   -0.539174   -6.236232 H        1 UNL1     0.0428
     85 H         4.701929   -0.064216   -7.824707 H        1 UNL1     0.0428
     86 H         3.689517   1.175581   -5.910868 H        1 UNL1     0.0317
     87 H         2.97428   -0.223977   -5.253581 H        1 UNL1     0.0317
     88 H         4.913102   -2.794256   -8.679263 H        1 UNL1     0.0429
     89 H         5.776   -2.653724   -7.145675 H        1 UNL1     0.0429
     90 H         3.817557   -4.721073   -8.111804 H        1 UNL1     0.0308
     91 H         6.184731   -4.692852   -6.164409 H        1 UNL1     0.0233
     92 H         5.152439   -6.124013   -6.412701 H        1 UNL1     0.0233
     93 H         6.106907   -5.484863   -7.733717 H        1 UNL1     0.0233
     94 H         3.770738   -4.105458   -5.165002 H        1 UNL1     0.0233
     95 H         2.613775   -3.385533   -6.295255 H        1 UNL1     0.0233
     96 H         2.688948   -5.152629   -6.106286 H        1 UNL1     0.0233
     97 H         -5.202933   3.763747   -9.43669 H        1 UNL1     0.0280
     98 H         -4.896918   5.021163   -8.269451 H        1 UNL1     0.0280
     99 H         -4.432789   5.266093   -9.979517 H        1 UNL1     0.0280
     100 H         -2.848378   3.060098   -11.709559 H        1 UNL1     0.2922
     101 H         2.026397   5.039821   -2.616694 H        1 UNL1     0.0236
     102 H         3.635502   4.98703   -3.437703 H        1 UNL1     0.0236
     103 H         3.363193   4.171633   -1.928905 H        1 UNL1     0.0236
     104 H         3.290583   2.243751   -0.768277 H        1 UNL1     0.2098
     105 H         0.569073   -0.275147   -1.615933 H        1 UNL1     0.0234
     106 H         1.613874   -0.468343   -0.179909 H        1 UNL1     0.0234
     107 H         0.0   -0.0   0.0 H        1 UNL1     0.0234
     108 H         -0.508792   4.243697   -0.369744 H        1 UNL1     0.2098
     109 H         -2.058393   0.302737   -3.076481 H        1 UNL1     0.0234
     110 H         -0.727404   -0.09744   -1.944612 H        1 UNL1     0.0234
     111 H         -1.970467   -1.252368   -2.275938 H        1 UNL1     0.0234
     112 H         -1.354569   -1.300975   4.356213 H        1 UNL1     0.0342
     113 H         -2.484251   -0.198715   3.491876 H        1 UNL1     0.0342
     114 H         -2.64994   -1.949696   3.335083 H        1 UNL1     0.0342
     115 H         -1.937363   3.136269   2.700695 H        1 UNL1     0.0234
     116 H         -2.865767   3.346077   1.212464 H        1 UNL1     0.0234
     117 H         -3.194419   2.039316   2.369188 H        1 UNL1     0.0234
     118 H         -4.543433   1.7912   -4.680582 H        1 UNL1     0.0309
     119 H         -4.304326   1.676714   -6.45196 H        1 UNL1     0.0309
     120 H         -3.165915   0.97503   -5.323326 H        1 UNL1     0.0309
     121 H         -4.493139   4.307531   -1.240174 H        1 UNL1     0.0524
     122 H         -5.582171   2.974447   -0.835511 H        1 UNL1     0.0524
     123 H         -4.891696   3.974599   0.467057 H        1 UNL1     0.0524
@<TRIPOS>BOND
     1     1     2    1
     2     1    42    1
     3     2     3    2
     4     3     4    1
     5     4     5    2
     6     5     7    1
     7     6    75    1
     8     6    76    1
     9     6    77    1
    10     7     9   am
    11     9    10    1
    12    10    11    2
    13    10    43    1
    14    11    14    1
    15    11    15    1
    16    12    13   ar
    17    12    27   ar
    18    12    43    1
    19    13    14    1
    20    13    30   ar
    21    14    17    2
    22    15    16    1
    23    16    17    1
    24    16    18    1
    25    16    22    1
    26    18    19    1
    27    19    20    1
    28    20    21    1
    29    21    22    1
    30    23    24    1
    31    23    88    1
    32    23    89    1
    33    24    25    1
    34    24    26    1
    35    24    90    1
    36    25    91    1
    37    25    92    1
    38    25    93    1
    39    26    94    1
    40    26    95    1
    41    26    96    1
    42    27    28   ar
    43    28    29   ar
    44    29    30   ar
    45    29    31    1
    46    30    33    1
    47    31    32    1
    48    32    33    1
    49    32    35    1
    50    34    97    1
    51    34    98    1
    52    34    99    1
    53    35    61    1
    54    36    37    1
    55    36    60    1
    56    37    38    1
    57    38    39    1
    58    39    40    1
    59    40    41    1
    60    41    42    1
    61    45   100    1
    62    47   101    1
    63    47   102    1
    64    47   103    1
    65    48   104    1
    66    49   105    1
    67    49   106    1
    68    49   107    1
    69    50   108    1
    70    51    59    1
    71    52   109    1
    72    52   110    1
    73    52   111    1
    74    53    54    1
    75    54    55    2
    76    54    56    1
    77    56   112    1
    78    56   113    1
    79    56   114    1
    80    57   115    1
    81    57   116    1
    82    57   117    1
    83    58   118    1
    84    58   119    1
    85    58   120    1
    86    59   121    1
    87    59   122    1
    88    59   123    1
    89    60    61    2
    90     1    47    1
    91     1    62    1
    92     2    63    1
    93     3    64    1
    94     4    65    1
    95     5     6    1
    96     7     8    2
    97     9    78    1
    98    15    79    1
    99    18    80    1
   100    18    81    1
   101    19    82    1
   102    19    83    1
   103    20    23    1
   104    21    84    1
   105    21    85    1
   106    22    86    1
   107    22    87    1
   108    27    45    1
   109    28    34    1
   110    32    58    1
   111    33    46    2
   112    36    51    1
   113    36    66    1
   114    37    52    1
   115    37    67    1
   116    38    53    1
   117    38    68    1
   118    42    48    1
   119    42    72    1
   120    43    44    2
   121    60    73    1
   122    61    74    1
   123    39    69    1
   124    39    57    1
   125    40    70    1
   126    40    50    1
   127    41    71    1
   128    41    49    1
