@<TRIPOS>MOLECULE
*****
 123 128 0 0 0
SMALL
GASTEIGER

@<TRIPOS>ATOM
     1 C         5.154576   1.855049   -0.029965 C.3        1 UNL1     0.0009
     2 C         6.712965   2.071254   0.950706 C.2        1 UNL1     -0.0787
     3 C         7.608519   2.91226   1.716694 C.2        1 UNL1     -0.0649
     4 C         8.998399   2.450161   2.565844 C.2        1 UNL1     -0.0542
     5 C         9.907411   2.812783   3.590187 C.2        1 UNL1     0.0115
     6 C         10.343121   3.968588   4.532309 C.3        1 UNL1     -0.0348
     7 C         10.846796   1.680216   4.231934 C.2        1 UNL1     0.2441
     8 O         12.027474   1.550469   3.939205 O.2        1 UNL1     -0.2702
     9 N         10.294964   1.016356   5.341404 N.am        1 UNL1     -0.2772
     10 C         9.548973   -0.06488   4.931835 C.2        1 UNL1     0.1049
     11 C         8.310406   0.192635   4.552546 C.2        1 UNL1     0.0801
     12 C         9.623964   -2.080439   3.45223 C.ar        1 UNL1     0.0753
     13 C         8.369316   -1.640891   2.921886 C.ar        1 UNL1     0.0305
     14 C         7.609807   -0.561266   3.548469 C.2        1 UNL1     0.0924
     15 N         7.578322   1.310854   4.694549 N.pl3        1 UNL1     -0.3170
     16 C         6.236988   1.015283   4.265931 C.3        1 UNL1     0.1275
     17 N         6.398863   -0.095039   3.256622 N.2        1 UNL1     -0.2557
     18 C         5.506591   0.401939   5.456742 C.3        1 UNL1     0.0016
     19 C         5.592913   1.365922   6.629292 C.3        1 UNL1     0.0026
     20 N         4.988276   2.632164   6.239326 N.3        1 UNL1     -0.3018
     21 C         5.584287   3.269703   5.06345 C.3        1 UNL1     0.0026
     22 C         5.482586   2.285745   3.89667 C.3        1 UNL1     0.0016
     23 C         4.749076   3.513234   7.365001 C.3        1 UNL1     0.0012
     24 C         3.613078   2.967354   8.244364 C.3        1 UNL1     -0.0339
     25 C         2.784828   4.105197   8.863533 C.3        1 UNL1     -0.0615
     26 C         2.743415   2.016302   7.440644 C.3        1 UNL1     -0.0615
     27 C         10.283122   -3.187545   2.92313 C.ar        1 UNL1     0.1347
     28 C         9.768916   -3.955556   1.893663 C.ar        1 UNL1     0.0342
     29 C         8.556408   -3.475132   1.354978 C.ar        1 UNL1     0.1435
     30 C         7.902675   -2.346473   1.850944 C.ar        1 UNL1     0.0774
     31 O         7.873892   -4.174019   0.421847 O.3        1 UNL1     -0.4436
     32 C         6.539005   -3.649074   0.480018 C.3        1 UNL1     0.3143
     33 C         6.684205   -2.262225   1.073127 C.2        1 UNL1     0.2504
     34 C         10.290717   -5.292287   1.445363 C.3        1 UNL1     -0.0327
     35 O         6.088377   -3.480499   -0.869711 O.2        1 UNL1     -0.4528
     36 C         2.324049   -3.959485   -0.777534 C.3        1 UNL1     0.0854
     37 C         1.241292   -3.183179   0.066568 C.3        1 UNL1     0.0236
     38 C         0.055466   -2.529639   -0.79276 C.3        1 UNL1     0.1131
     39 C         0.39914   -1.620704   -2.040957 C.3        1 UNL1     0.0200
     40 C         1.617692   -0.485283   -1.949357 C.3        1 UNL1     0.0661
     41 C         1.809493   0.669629   -0.721757 C.3        1 UNL1     0.0091
     42 C         3.330176   1.411827   -0.013191 C.3        1 UNL1     0.0661
     43 C         10.156728   -1.37229   4.642585 C.2        1 UNL1     0.2131
     44 O         10.967331   -1.860204   5.409137 O.2        1 UNL1     -0.2851
     45 O         11.521714   -3.521606   3.466941 O.3        1 UNL1     -0.5056
     46 O         5.967617   -1.298414   0.920081 O.2        1 UNL1     -0.2836
     47 C         5.312324   2.486556   -1.439325 C.3        1 UNL1     -0.0566
     48 O         2.822118   2.803104   -0.086273 O.3        1 UNL1     -0.3909
     49 C         0.916424   0.298651   0.441127 C.3        1 UNL1     -0.0577
     50 O         2.867182   -1.06433   -2.26748 O.3        1 UNL1     -0.3910
     51 O         2.216705   -3.838085   -2.177952 O.3        1 UNL1     -0.3753
     52 C         1.874796   -2.455451   1.297029 C.3        1 UNL1     -0.0564
     53 O         -1.124902   -2.110641   0.033979 O.3        1 UNL1     -0.4608
     54 C         -2.209306   -1.410249   -0.425857 C.2        1 UNL1     0.3042
     55 O         -2.737575   -0.426988   0.0918 O.2        1 UNL1     -0.2512
     56 C         -2.735073   -1.911026   -1.740963 C.3        1 UNL1     0.0332
     57 C         0.340322   -2.547447   -3.34321 C.3        1 UNL1     -0.0567
     58 C         5.761947   -4.539407   1.477524 C.3        1 UNL1     0.0210
     59 C         1.755644   -5.010603   -2.847646 C.3        1 UNL1     0.0372
     60 C         3.736598   -3.648352   -0.426733 C.2        1 UNL1     -0.0208
     61 C         4.787585   -3.401686   -1.209884 C.2        1 UNL1     0.0882
     62 H         5.391895   0.789625   -0.136094 H        1 UNL1     0.0365
     63 H         7.159116   1.08016   0.845103 H        1 UNL1     0.0576
     64 H         7.35724   3.948206   1.954985 H        1 UNL1     0.0615
     65 H         9.2046   1.441081   2.198798 H        1 UNL1     0.0622
     66 H         2.173883   -5.015979   -0.514251 H        1 UNL1     0.0645
     67 H         0.704607   -3.97932   0.611259 H        1 UNL1     0.0362
     68 H         -0.393142   -3.443246   -1.2118 H        1 UNL1     0.0741
     69 H         -0.467261   -1.019696   -2.28292 H        1 UNL1     0.0359
     70 H         1.367461   0.134575   -2.831525 H        1 UNL1     0.0600
     71 H         1.249277   1.516685   -1.164037 H        1 UNL1     0.0348
     72 H         3.621923   0.995427   -0.988286 H        1 UNL1     0.0602
     73 H         3.87091   -3.767311   0.619717 H        1 UNL1     0.0628
     74 H         4.726405   -3.209432   -2.28158 H        1 UNL1     0.1022
     75 H         10.452175   4.921104   3.959722 H        1 UNL1     0.0279
     76 H         9.642199   4.245626   5.316546 H        1 UNL1     0.0279
     77 H         11.361111   3.834948   4.926693 H        1 UNL1     0.0279
     78 H         9.671757   1.646579   5.841913 H        1 UNL1     0.1553
     79 H         7.790688   2.035418   5.355488 H        1 UNL1     0.1484
     80 H         4.464918   0.206159   5.175046 H        1 UNL1     0.0317
     81 H         5.944572   -0.564338   5.729015 H        1 UNL1     0.0317
     82 H         6.631203   1.509216   6.962958 H        1 UNL1     0.0428
     83 H         5.067418   0.90818   7.467969 H        1 UNL1     0.0428
     84 H         5.06194   4.176973   4.744349 H        1 UNL1     0.0428
     85 H         6.611447   3.607768   5.258308 H        1 UNL1     0.0428
     86 H         5.804035   2.831354   3.028932 H        1 UNL1     0.0317
     87 H         4.429521   2.065954   3.682557 H        1 UNL1     0.0317
     88 H         5.666686   3.556056   7.96621 H        1 UNL1     0.0429
     89 H         4.53489   4.536863   7.031711 H        1 UNL1     0.0429
     90 H         4.043075   2.367339   9.055103 H        1 UNL1     0.0308
     91 H         2.535253   4.866466   8.118359 H        1 UNL1     0.0233
     92 H         1.862699   3.717104   9.302476 H        1 UNL1     0.0233
     93 H         3.317915   4.616378   9.674303 H        1 UNL1     0.0233
     94 H         3.301393   1.629203   6.581196 H        1 UNL1     0.0233
     95 H         2.44744   1.165844   8.061192 H        1 UNL1     0.0233
     96 H         1.842518   2.514577   7.071758 H        1 UNL1     0.0233
     97 H         9.534939   -6.068929   1.515063 H        1 UNL1     0.0280
     98 H         10.613065   -5.279945   0.395985 H        1 UNL1     0.0280
     99 H         11.146115   -5.584934   2.076035 H        1 UNL1     0.0280
     100 H         12.123241   -2.8018   3.542229 H        1 UNL1     0.2922
     101 H         5.450569   1.700275   -2.181152 H        1 UNL1     0.0236
     102 H         6.100714   3.236992   -1.48698 H        1 UNL1     0.0236
     103 H         4.400018   3.016659   -1.760077 H        1 UNL1     0.0236
     104 H         2.185777   2.923556   0.645527 H        1 UNL1     0.2098
     105 H         1.282296   -0.530315   1.041764 H        1 UNL1     0.0234
     106 H         0.633079   1.133412   1.082077 H        1 UNL1     0.0234
     107 H         -0.0   0.0   0.0 H        1 UNL1     0.0234
     108 H         3.55886   -0.436789   -1.981927 H        1 UNL1     0.2098
     109 H         2.885098   -2.823906   1.523398 H        1 UNL1     0.0234
     110 H         1.898134   -1.365859   1.187534 H        1 UNL1     0.0234
     111 H         1.287307   -2.618688   2.210351 H        1 UNL1     0.0234
     112 H         -3.589509   -1.304144   -2.055574 H        1 UNL1     0.0342
     113 H         -1.964338   -1.929056   -2.510045 H        1 UNL1     0.0342
     114 H         -3.088081   -2.941786   -1.599249 H        1 UNL1     0.0342
     115 H         0.254836   -3.611634   -3.083624 H        1 UNL1     0.0234
     116 H         -0.480811   -2.307994   -4.021777 H        1 UNL1     0.0234
     117 H         1.276602   -2.545156   -3.927431 H        1 UNL1     0.0234
     118 H         5.001926   -5.161407   0.973054 H        1 UNL1     0.0309
     119 H         6.41354   -5.184648   2.075263 H        1 UNL1     0.0309
     120 H         5.174684   -3.95447   2.193818 H        1 UNL1     0.0309
     121 H         2.625836   -5.628621   -3.067135 H        1 UNL1     0.0524
     122 H         1.072971   -5.608893   -2.221511 H        1 UNL1     0.0524
     123 H         1.245202   -4.741555   -3.768057 H        1 UNL1     0.0524
@<TRIPOS>BOND
     1     1     2    1
     2     1    42    1
     3     2     3    2
     4     3     4    1
     5     4     5    2
     6     5     7    1
     7     6    75    1
     8     6    76    1
     9     6    77    1
    10     7     9   am
    11     9    10    1
    12    10    11    2
    13    10    43    1
    14    11    14    1
    15    11    15    1
    16    12    13   ar
    17    12    27   ar
    18    12    43    1
    19    13    14    1
    20    13    30   ar
    21    14    17    2
    22    15    16    1
    23    16    17    1
    24    16    18    1
    25    16    22    1
    26    18    19    1
    27    19    20    1
    28    20    21    1
    29    21    22    1
    30    23    24    1
    31    23    88    1
    32    23    89    1
    33    24    25    1
    34    24    26    1
    35    24    90    1
    36    25    91    1
    37    25    92    1
    38    25    93    1
    39    26    94    1
    40    26    95    1
    41    26    96    1
    42    27    28   ar
    43    28    29   ar
    44    29    30   ar
    45    29    31    1
    46    30    33    1
    47    31    32    1
    48    32    33    1
    49    32    35    1
    50    34    97    1
    51    34    98    1
    52    34    99    1
    53    35    61    1
    54    36    37    1
    55    36    60    1
    56    37    38    1
    57    38    39    1
    58    39    40    1
    59    40    41    1
    60    41    42    1
    61    45   100    1
    62    47   101    1
    63    47   102    1
    64    47   103    1
    65    48   104    1
    66    49   105    1
    67    49   106    1
    68    49   107    1
    69    50   108    1
    70    51    59    1
    71    52   109    1
    72    52   110    1
    73    52   111    1
    74    53    54    1
    75    54    55    2
    76    54    56    1
    77    56   112    1
    78    56   113    1
    79    56   114    1
    80    57   115    1
    81    57   116    1
    82    57   117    1
    83    58   118    1
    84    58   119    1
    85    58   120    1
    86    59   121    1
    87    59   122    1
    88    59   123    1
    89    60    61    2
    90     1    47    1
    91     1    62    1
    92     2    63    1
    93     3    64    1
    94     4    65    1
    95     5     6    1
    96     7     8    2
    97     9    78    1
    98    15    79    1
    99    18    80    1
   100    18    81    1
   101    19    82    1
   102    19    83    1
   103    20    23    1
   104    21    84    1
   105    21    85    1
   106    22    86    1
   107    22    87    1
   108    27    45    1
   109    28    34    1
   110    32    58    1
   111    33    46    2
   112    36    51    1
   113    36    66    1
   114    37    52    1
   115    37    67    1
   116    38    53    1
   117    38    68    1
   118    42    48    1
   119    42    72    1
   120    43    44    2
   121    60    73    1
   122    61    74    1
   123    39    69    1
   124    39    57    1
   125    40    70    1
   126    40    50    1
   127    41    71    1
   128    41    49    1
