@<TRIPOS>MOLECULE
*****
 123 128 0 0 0
SMALL
GASTEIGER

@<TRIPOS>ATOM
     1 C         4.982227   2.086283   0.907806 C.3        1 UNL1     0.0009
     2 C         6.412962   3.017787   0.18508 C.2        1 UNL1     -0.0787
     3 C         7.74161   3.030838   -0.389874 C.2        1 UNL1     -0.0649
     4 C         8.578605   4.348129   -1.04603 C.2        1 UNL1     -0.0542
     5 C         9.637624   4.741658   -1.900835 C.2        1 UNL1     0.0115
     6 C         10.864952   4.224922   -2.700818 C.3        1 UNL1     -0.0348
     7 C         9.668309   6.247122   -2.457274 C.2        1 UNL1     0.2441
     8 O         10.403107   7.111117   -1.998895 O.2        1 UNL1     -0.2702
     9 N         8.988097   6.439931   -3.6723 N.am        1 UNL1     -0.2772
     10 C         7.662344   6.726054   -3.440276 C.2        1 UNL1     0.1049
     11 C         6.870091   5.689163   -3.236771 C.2        1 UNL1     0.0801
     12 C         6.157659   8.191324   -2.081511 C.ar        1 UNL1     0.0753
     13 C         5.452132   6.999293   -1.72109 C.ar        1 UNL1     0.0305
     14 C         5.706669   5.72683   -2.392729 C.2        1 UNL1     0.0924
     15 N         7.098269   4.377871   -3.42379 N.pl3        1 UNL1     -0.3170
     16 C         5.85586   3.681939   -3.21799 C.3        1 UNL1     0.1275
     17 N         5.086356   4.557881   -2.259703 N.2        1 UNL1     -0.2557
     18 C         5.090562   3.723224   -4.537201 C.3        1 UNL1     0.0016
     19 C         5.968846   3.130747   -5.627695 C.3        1 UNL1     0.0026
     20 N         6.309579   1.762775   -5.262208 N.3        1 UNL1     -0.3018
     21 C         6.994772   1.615054   -3.976495 C.3        1 UNL1     0.0026
     22 C         6.09281   2.212533   -2.895117 C.3        1 UNL1     0.0016
     23 C         6.887419   1.013076   -6.359794 C.3        1 UNL1     0.0012
     24 C         5.823613   0.716439   -7.428475 C.3        1 UNL1     -0.0339
     25 C         5.857914   1.756788   -8.56009 C.3        1 UNL1     -0.0615
     26 C         5.999944   -0.694926   -7.961143 C.3        1 UNL1     -0.0615
     27 C         5.825877   9.423284   -1.522661 C.ar        1 UNL1     0.1347
     28 C         4.785792   9.593817   -0.626453 C.ar        1 UNL1     0.0342
     29 C         4.137045   8.398839   -0.2492 C.ar        1 UNL1     0.1435
     30 C         4.482195   7.152488   -0.77332 C.ar        1 UNL1     0.0774
     31 O         3.03398   8.411671   0.530601 O.3        1 UNL1     -0.4436
     32 C         2.414002   7.137061   0.302852 C.3        1 UNL1     0.3143
     33 C         3.530221   6.234786   -0.183121 C.2        1 UNL1     0.2504
     34 C         4.212846   10.910338   -0.1808 C.3        1 UNL1     -0.0327
     35 O         1.995252   6.633266   1.577251 O.2        1 UNL1     -0.4528
     36 C         -1.06585   4.49464   0.896059 C.3        1 UNL1     0.0854
     37 C         -1.217231   3.246128   -0.055689 C.3        1 UNL1     0.0236
     38 C         -1.779094   1.921164   0.651788 C.3        1 UNL1     0.1131
     39 C         -1.109076   1.399353   1.986352 C.3        1 UNL1     0.0200
     40 C         0.551422   1.368247   2.141968 C.3        1 UNL1     0.0661
     41 C         1.64202   0.706798   1.023624 C.3        1 UNL1     0.0091
     42 C         3.354222   1.205438   0.593365 C.3        1 UNL1     0.0661
     43 C         7.195488   8.087119   -3.137121 C.2        1 UNL1     0.2131
     44 O         7.578854   9.033967   -3.799877 O.2        1 UNL1     -0.2851
     45 O         6.591755   10.526834   -1.892862 O.3        1 UNL1     -0.5056
     46 O         3.623237   5.031616   -0.085223 O.2        1 UNL1     -0.2836
     47 C         5.307751   1.638255   2.358077 C.3        1 UNL1     -0.0566
     48 O         3.895914   -0.173036   0.667508 O.3        1 UNL1     -0.3909
     49 C         0.914517   0.457784   -0.278768 C.3        1 UNL1     -0.0577
     50 O         1.034239   2.611258   2.610514 O.3        1 UNL1     -0.3910
     51 O         -1.272115   4.251104   2.269222 O.3        1 UNL1     -0.3753
     52 C         -0.086656   3.196604   -1.134715 C.3        1 UNL1     -0.0564
     53 O         -2.241992   0.873026   -0.317468 O.3        1 UNL1     -0.4608
     54 C         -2.392634   -0.459566   -0.035625 C.2        1 UNL1     0.3042
     55 O         -1.721212   -1.395145   -0.468895 O.2        1 UNL1     -0.2512
     56 C         -3.478909   -0.744168   0.962233 C.3        1 UNL1     0.0332
     57 C         -1.961767   1.97478   3.211087 C.3        1 UNL1     -0.0567
     58 C         1.401699   7.342447   -0.848055 C.3        1 UNL1     0.0210
     59 C         -1.74948   5.372137   3.011701 C.3        1 UNL1     0.0372
     60 C         0.227473   5.221745   0.778607 C.2        1 UNL1     -0.0208
     61 C         1.044494   5.690473   1.722808 C.2        1 UNL1     0.0882
     62 H         4.432173   3.031623   0.988329 H        1 UNL1     0.0365
     63 H         6.065304   4.046515   0.300505 H        1 UNL1     0.0576
     64 H         8.281514   2.105905   -0.604604 H        1 UNL1     0.0615
     65 H         8.004392   5.215579   -0.709439 H        1 UNL1     0.0622
     66 H         -1.838755   5.197459   0.554432 H        1 UNL1     0.0645
     67 H         -2.058285   3.514591   -0.718348 H        1 UNL1     0.0362
     68 H         -2.77709   2.279404   0.947067 H        1 UNL1     0.0741
     69 H         -1.380099   0.361792   2.129255 H        1 UNL1     0.0359
     70 H         0.648884   0.688629   3.010116 H        1 UNL1     0.0600
     71 H         1.728921   -0.322373   1.423891 H        1 UNL1     0.0348
     72 H         3.146068   1.652604   1.576233 H        1 UNL1     0.0602
     73 H         0.402449   5.460712   -0.240965 H        1 UNL1     0.0628
     74 H         0.968023   5.444004   2.782356 H        1 UNL1     0.1022
     75 H         10.97774   3.120965   -2.575953 H        1 UNL1     0.0279
     76 H         10.820655   4.335071   -3.782009 H        1 UNL1     0.0279
     77 H         11.820595   4.587772   -2.294877 H        1 UNL1     0.0279
     78 H         9.025029   5.58552   -4.224292 H        1 UNL1     0.1553
     79 H         7.833628   4.017662   -4.003815 H        1 UNL1     0.1484
     80 H         4.155761   3.160599   -4.425993 H        1 UNL1     0.0317
     81 H         4.80963   4.750093   -4.794625 H        1 UNL1     0.0317
     82 H         6.87402   3.733267   -5.793654 H        1 UNL1     0.0428
     83 H         5.404612   3.171661   -6.559906 H        1 UNL1     0.0428
     84 H         7.167745   0.573367   -3.688779 H        1 UNL1     0.0428
     85 H         8.000585   2.056947   -3.996171 H        1 UNL1     0.0428
     86 H         6.561699   1.968889   -1.959826 H        1 UNL1     0.0317
     87 H         5.143766   1.664177   -2.853676 H        1 UNL1     0.0317
     88 H         7.677255   1.625903   -6.813553 H        1 UNL1     0.0429
     89 H         7.361266   0.088593   -6.00543 H        1 UNL1     0.0429
     90 H         4.831016   0.73916   -6.963233 H        1 UNL1     0.0308
     91 H         6.842921   1.795771   -9.034795 H        1 UNL1     0.0233
     92 H         5.103744   1.529169   -9.317075 H        1 UNL1     0.0233
     93 H         5.636606   2.769835   -8.20289 H        1 UNL1     0.0233
     94 H         5.374273   -0.844977   -8.847629 H        1 UNL1     0.0233
     95 H         7.041541   -0.856982   -8.25231 H        1 UNL1     0.0233
     96 H         5.722561   -1.441756   -7.211963 H        1 UNL1     0.0233
     97 H         3.375778   10.78127   0.498825 H        1 UNL1     0.0280
     98 H         4.948283   11.519711   0.360544 H        1 UNL1     0.0280
     99 H         3.860857   11.475876   -1.059074 H        1 UNL1     0.0280
     100 H         6.09571   11.253166   -2.227531 H        1 UNL1     0.2922
     101 H         4.445289   1.12936   2.788009 H        1 UNL1     0.0236
     102 H         5.65854   2.453473   2.990018 H        1 UNL1     0.0236
     103 H         6.117778   0.890512   2.388562 H        1 UNL1     0.0236
     104 H         4.261885   -0.29826   1.564924 H        1 UNL1     0.2098
     105 H         0.678285   1.358054   -0.84048 H        1 UNL1     0.0234
     106 H         1.383922   -0.280668   -0.928595 H        1 UNL1     0.0234
     107 H         0.0   -0.0   0.0 H        1 UNL1     0.0234
     108 H         0.835056   3.277113   1.924415 H        1 UNL1     0.2098
     109 H         0.914876   3.142125   -0.685631 H        1 UNL1     0.0234
     110 H         -0.211678   2.378161   -1.851838 H        1 UNL1     0.0234
     111 H         -0.083563   4.099756   -1.759418 H        1 UNL1     0.0234
     112 H         -3.542897   -1.821009   1.145713 H        1 UNL1     0.0342
     113 H         -3.33388   -0.197238   1.892651 H        1 UNL1     0.0342
     114 H         -4.435338   -0.418698   0.530404 H        1 UNL1     0.0342
     115 H         -3.005015   1.631537   3.179368 H        1 UNL1     0.0234
     116 H         -1.560253   1.714803   4.192538 H        1 UNL1     0.0234
     117 H         -2.09653   3.069606   3.177372 H        1 UNL1     0.0234
     118 H         0.441695   7.751772   -0.487706 H        1 UNL1     0.0309
     119 H         1.785738   7.982182   -1.648964 H        1 UNL1     0.0309
     120 H         1.111209   6.400239   -1.325512 H        1 UNL1     0.0309
     121 H         -0.991562   6.15288   2.953761 H        1 UNL1     0.0524
     122 H         -2.683031   5.784047   2.593552 H        1 UNL1     0.0524
     123 H         -1.920489   5.091852   4.047216 H        1 UNL1     0.0524
@<TRIPOS>BOND
     1     1     2    1
     2     1    42    1
     3     2     3    2
     4     3     4    1
     5     4     5    2
     6     5     7    1
     7     6    75    1
     8     6    76    1
     9     6    77    1
    10     7     9   am
    11     9    10    1
    12    10    11    2
    13    10    43    1
    14    11    14    1
    15    11    15    1
    16    12    13   ar
    17    12    27   ar
    18    12    43    1
    19    13    14    1
    20    13    30   ar
    21    14    17    2
    22    15    16    1
    23    16    17    1
    24    16    18    1
    25    16    22    1
    26    18    19    1
    27    19    20    1
    28    20    21    1
    29    21    22    1
    30    23    24    1
    31    23    88    1
    32    23    89    1
    33    24    25    1
    34    24    26    1
    35    24    90    1
    36    25    91    1
    37    25    92    1
    38    25    93    1
    39    26    94    1
    40    26    95    1
    41    26    96    1
    42    27    28   ar
    43    28    29   ar
    44    29    30   ar
    45    29    31    1
    46    30    33    1
    47    31    32    1
    48    32    33    1
    49    32    35    1
    50    34    97    1
    51    34    98    1
    52    34    99    1
    53    35    61    1
    54    36    37    1
    55    36    60    1
    56    37    38    1
    57    38    39    1
    58    39    40    1
    59    40    41    1
    60    41    42    1
    61    45   100    1
    62    47   101    1
    63    47   102    1
    64    47   103    1
    65    48   104    1
    66    49   105    1
    67    49   106    1
    68    49   107    1
    69    50   108    1
    70    51    59    1
    71    52   109    1
    72    52   110    1
    73    52   111    1
    74    53    54    1
    75    54    55    2
    76    54    56    1
    77    56   112    1
    78    56   113    1
    79    56   114    1
    80    57   115    1
    81    57   116    1
    82    57   117    1
    83    58   118    1
    84    58   119    1
    85    58   120    1
    86    59   121    1
    87    59   122    1
    88    59   123    1
    89    60    61    2
    90     1    47    1
    91     1    62    1
    92     2    63    1
    93     3    64    1
    94     4    65    1
    95     5     6    1
    96     7     8    2
    97     9    78    1
    98    15    79    1
    99    18    80    1
   100    18    81    1
   101    19    82    1
   102    19    83    1
   103    20    23    1
   104    21    84    1
   105    21    85    1
   106    22    86    1
   107    22    87    1
   108    27    45    1
   109    28    34    1
   110    32    58    1
   111    33    46    2
   112    36    51    1
   113    36    66    1
   114    37    52    1
   115    37    67    1
   116    38    53    1
   117    38    68    1
   118    42    48    1
   119    42    72    1
   120    43    44    2
   121    60    73    1
   122    61    74    1
   123    39    69    1
   124    39    57    1
   125    40    70    1
   126    40    50    1
   127    41    71    1
   128    41    49    1
