@<TRIPOS>MOLECULE
*****
 123 128 0 0 0
SMALL
GASTEIGER

@<TRIPOS>ATOM
     1 C         1.071358   0.360884   3.970769 C.3        1 UNL1     0.0009
     2 C         1.036322   1.892626   5.014596 C.2        1 UNL1     -0.0787
     3 C         1.71486   3.030411   5.598614 C.2        1 UNL1     -0.0649
     4 C         1.036262   4.306892   6.479783 C.2        1 UNL1     -0.0542
     5 C         1.224724   5.637521   6.928096 C.2        1 UNL1     0.0115
     6 C         2.262513   6.786933   7.051264 C.3        1 UNL1     -0.0348
     7 C         -0.050282   6.479117   7.421112 C.2        1 UNL1     0.2441
     8 O         -0.30948   6.663724   8.602324 O.2        1 UNL1     -0.2702
     9 N         -0.701444   7.207963   6.410705 N.am        1 UNL1     -0.2772
     10 C         -1.656602   6.430358   5.797251 C.2        1 UNL1     0.1049
     11 C         -1.225898   5.62199   4.845802 C.2        1 UNL1     0.0801
     12 C         -3.579535   4.904044   6.276864 C.ar        1 UNL1     0.0753
     13 C         -2.958021   3.969792   5.388324 C.ar        1 UNL1     0.0305
     14 C         -1.829072   4.35234   4.543232 C.2        1 UNL1     0.0924
     15 N         -0.034929   5.576581   4.224465 N.pl3        1 UNL1     -0.3170
     16 C         -0.136549   4.626623   3.14859 C.3        1 UNL1     0.1275
     17 N         -1.199963   3.655882   3.600844 N.2        1 UNL1     -0.2557
     18 C         -0.719988   5.364543   1.947435 C.3        1 UNL1     0.0016
     19 C         0.158373   6.567366   1.642006 C.3        1 UNL1     0.0026
     20 N         1.50996   6.101205   1.364635 N.3        1 UNL1     -0.3018
     21 C         2.133271   5.326435   2.439616 C.3        1 UNL1     0.0026
     22 C         1.236715   4.120798   2.726883 C.3        1 UNL1     0.0016
     23 C         2.349374   7.124556   0.77406 C.3        1 UNL1     0.0012
     24 C         1.537475   8.403167   0.513806 C.3        1 UNL1     -0.0339
     25 C         1.036851   8.465566   -0.938619 C.3        1 UNL1     -0.0615
     26 C         0.391024   8.502881   1.505011 C.3        1 UNL1     -0.0615
     27 C         -4.728677   4.568227   6.988776 C.ar        1 UNL1     0.1347
     28 C         -5.367626   3.34739   6.864879 C.ar        1 UNL1     0.0342
     29 C         -4.710403   2.426263   6.021822 C.ar        1 UNL1     0.1435
     30 C         -3.538725   2.736132   5.330177 C.ar        1 UNL1     0.0774
     31 O         -5.265315   1.234122   5.712179 O.3        1 UNL1     -0.4436
     32 C         -4.582247   0.814529   4.521284 C.3        1 UNL1     0.3143
     33 C         -3.259793   1.554065   4.54171 C.2        1 UNL1     0.2504
     34 C         -6.731663   3.008005   7.398097 C.3        1 UNL1     -0.0327
     35 O         -4.283339   -0.57893   4.670202 O.2        1 UNL1     -0.4528
     36 C         -4.294008   -2.026333   1.161213 C.3        1 UNL1     0.0854
     37 C         -3.437468   -1.603162   -0.093693 C.3        1 UNL1     0.0236
     38 C         -2.594076   -2.789151   -0.767388 C.3        1 UNL1     0.1131
     39 C         -1.666416   -3.701905   0.131831 C.3        1 UNL1     0.0200
     40 C         -0.698609   -3.0231   1.308696 C.3        1 UNL1     0.0661
     41 C         0.352658   -1.709086   1.094648 C.3        1 UNL1     0.0091
     42 C         0.858654   -0.387479   2.262006 C.3        1 UNL1     0.0661
     43 C         -3.01123   6.273103   6.347349 C.2        1 UNL1     0.2131
     44 O         -3.638592   7.243288   6.731921 O.2        1 UNL1     -0.2851
     45 O         -5.244449   5.519144   7.866942 O.3        1 UNL1     -0.5056
     46 O         -2.207152   1.229584   4.039204 O.2        1 UNL1     -0.2836
     47 C         1.756405   -0.800456   4.740172 C.3        1 UNL1     -0.0566
     48 O         2.304281   -0.513444   1.956374 O.3        1 UNL1     -0.3909
     49 C         0.031147   -1.036212   -0.221165 C.3        1 UNL1     -0.0577
     50 O         -1.410039   -2.880104   2.521602 O.3        1 UNL1     -0.3910
     51 O         -4.081756   -3.335629   1.638836 O.3        1 UNL1     -0.3753
     52 C         -2.864571   -0.155794   0.054164 C.3        1 UNL1     -0.0564
     53 O         -2.078358   -2.456502   -2.136952 O.3        1 UNL1     -0.4608
     54 C         -2.59297   -1.49687   -2.968945 C.2        1 UNL1     0.3042
     55 O         -1.972837   -0.627023   -3.579387 O.2        1 UNL1     -0.2512
     56 C         -4.078944   -1.602628   -3.162366 C.3        1 UNL1     0.0332
     57 C         -2.504032   -5.008606   0.517978 C.3        1 UNL1     -0.0567
     58 C         -5.42341   1.329412   3.330121 C.3        1 UNL1     0.0210
     59 C         -4.48373   -4.372353   0.744696 C.3        1 UNL1     0.0372
     60 C         -4.181476   -1.117828   2.334719 C.2        1 UNL1     -0.0208
     61 C         -4.024103   -1.394187   3.629942 C.2        1 UNL1     0.0882
     62 H         -0.007681   0.249486   4.131943 H        1 UNL1     0.0365
     63 H         0.004868   1.871515   5.372544 H        1 UNL1     0.0576
     64 H         2.759018   3.254056   5.368776 H        1 UNL1     0.0615
     65 H         0.031563   3.950589   6.722913 H        1 UNL1     0.0622
     66 H         -5.336661   -1.952024   0.82151 H        1 UNL1     0.0645
     67 H         -4.189853   -1.397686   -0.874883 H        1 UNL1     0.0362
     68 H         -3.419697   -3.44126   -1.090847 H        1 UNL1     0.0741
     69 H         -0.949518   -4.203395   -0.504544 H        1 UNL1     0.0359
     70 H         -0.003867   -3.864759   1.4931 H        1 UNL1     0.0600
     71 H         1.286393   -2.248008   0.840369 H        1 UNL1     0.0348
     72 H         0.464551   -1.205491   2.882373 H        1 UNL1     0.0602
     73 H         -4.374798   -0.121015   2.024496 H        1 UNL1     0.0628
     74 H         -3.765867   -2.377825   4.023655 H        1 UNL1     0.1022
     75 H         3.150203   6.452158   7.640303 H        1 UNL1     0.0279
     76 H         2.713768   7.134479   6.124631 H        1 UNL1     0.0279
     77 H         1.898753   7.624429   7.664435 H        1 UNL1     0.0279
     78 H         -0.027586   7.483508   5.699321 H        1 UNL1     0.1553
     79 H         0.619275   6.337441   4.217995 H        1 UNL1     0.1484
     80 H         -0.768335   4.676972   1.094396 H        1 UNL1     0.0317
     81 H         -1.747054   5.687923   2.147968 H        1 UNL1     0.0317
     82 H         0.152231   7.295761   2.466212 H        1 UNL1     0.0428
     83 H         -0.276684   7.080098   0.783588 H        1 UNL1     0.0428
     84 H         3.115023   4.921059   2.175713 H        1 UNL1     0.0428
     85 H         2.329252   5.943376   3.327474 H        1 UNL1     0.0428
     86 H         1.785869   3.510032   3.419257 H        1 UNL1     0.0317
     87 H         1.162207   3.488046   1.83404 H        1 UNL1     0.0317
     88 H         3.152787   7.359256   1.484509 H        1 UNL1     0.0429
     89 H         2.828348   6.765491   -0.145956 H        1 UNL1     0.0429
     90 H         2.172922   9.276678   0.701954 H        1 UNL1     0.0308
     91 H         1.155209   7.501293   -1.441879 H        1 UNL1     0.0233
     92 H         -0.014381   8.761154   -0.972512 H        1 UNL1     0.0233
     93 H         1.582038   9.205659   -1.53684 H        1 UNL1     0.0233
     94 H         0.402658   7.643179   2.183696 H        1 UNL1     0.0233
     95 H         0.495828   9.409488   2.107542 H        1 UNL1     0.0233
     96 H         -0.576193   8.527673   0.995262 H        1 UNL1     0.0233
     97 H         -7.467824   3.765379   7.145746 H        1 UNL1     0.0280
     98 H         -7.115274   2.066324   6.984169 H        1 UNL1     0.0280
     99 H         -6.687588   2.921229   8.496105 H        1 UNL1     0.0280
     100 H         -6.128245   5.355802   8.145952 H        1 UNL1     0.2922
     101 H         1.596598   -1.738331   4.208656 H        1 UNL1     0.0236
     102 H         1.44854   -0.863944   5.783327 H        1 UNL1     0.0236
     103 H         2.852318   -0.683019   4.777261 H        1 UNL1     0.0236
     104 H         2.795861   -0.358865   2.78669 H        1 UNL1     0.2098
     105 H         0.776815   -1.188466   -0.997444 H        1 UNL1     0.0234
     106 H         -0.965725   -1.24637   -0.608474 H        1 UNL1     0.0234
     107 H         -0.0   0.0   0.0 H        1 UNL1     0.0234
     108 H         -1.23371   -1.979988   2.856963 H        1 UNL1     0.2098
     109 H         -1.766976   -0.146363   0.108088 H        1 UNL1     0.0234
     110 H         -3.198315   0.52227   -0.738671 H        1 UNL1     0.0234
     111 H         -3.211723   0.324399   0.978743 H        1 UNL1     0.0234
     112 H         -4.341892   -2.61677   -3.478152 H        1 UNL1     0.0342
     113 H         -4.629782   -1.316887   -2.267507 H        1 UNL1     0.0342
     114 H         -4.370147   -0.913261   -3.966815 H        1 UNL1     0.0342
     115 H         -3.529953   -4.966417   0.126962 H        1 UNL1     0.0234
     116 H         -2.057485   -5.941562   0.168354 H        1 UNL1     0.0234
     117 H         -2.692595   -5.10616   1.600969 H        1 UNL1     0.0234
     118 H         -5.97464   0.514586   2.828911 H        1 UNL1     0.0309
     119 H         -6.128037   2.118577   3.611052 H        1 UNL1     0.0309
     120 H         -4.804894   1.746629   2.527953 H        1 UNL1     0.0309
     121 H         -4.176215   -5.32208   1.181513 H        1 UNL1     0.0524
     122 H         -5.577623   -4.407697   0.609836 H        1 UNL1     0.0524
     123 H         -4.013176   -4.23587   -0.224863 H        1 UNL1     0.0524
@<TRIPOS>BOND
     1     1     2    1
     2     1    42    1
     3     2     3    2
     4     3     4    1
     5     4     5    2
     6     5     7    1
     7     6    75    1
     8     6    76    1
     9     6    77    1
    10     7     9   am
    11     9    10    1
    12    10    11    2
    13    10    43    1
    14    11    14    1
    15    11    15    1
    16    12    13   ar
    17    12    27   ar
    18    12    43    1
    19    13    14    1
    20    13    30   ar
    21    14    17    2
    22    15    16    1
    23    16    17    1
    24    16    18    1
    25    16    22    1
    26    18    19    1
    27    19    20    1
    28    20    21    1
    29    21    22    1
    30    23    24    1
    31    23    88    1
    32    23    89    1
    33    24    25    1
    34    24    26    1
    35    24    90    1
    36    25    91    1
    37    25    92    1
    38    25    93    1
    39    26    94    1
    40    26    95    1
    41    26    96    1
    42    27    28   ar
    43    28    29   ar
    44    29    30   ar
    45    29    31    1
    46    30    33    1
    47    31    32    1
    48    32    33    1
    49    32    35    1
    50    34    97    1
    51    34    98    1
    52    34    99    1
    53    35    61    1
    54    36    37    1
    55    36    60    1
    56    37    38    1
    57    38    39    1
    58    39    40    1
    59    40    41    1
    60    41    42    1
    61    45   100    1
    62    47   101    1
    63    47   102    1
    64    47   103    1
    65    48   104    1
    66    49   105    1
    67    49   106    1
    68    49   107    1
    69    50   108    1
    70    51    59    1
    71    52   109    1
    72    52   110    1
    73    52   111    1
    74    53    54    1
    75    54    55    2
    76    54    56    1
    77    56   112    1
    78    56   113    1
    79    56   114    1
    80    57   115    1
    81    57   116    1
    82    57   117    1
    83    58   118    1
    84    58   119    1
    85    58   120    1
    86    59   121    1
    87    59   122    1
    88    59   123    1
    89    60    61    2
    90     1    47    1
    91     1    62    1
    92     2    63    1
    93     3    64    1
    94     4    65    1
    95     5     6    1
    96     7     8    2
    97     9    78    1
    98    15    79    1
    99    18    80    1
   100    18    81    1
   101    19    82    1
   102    19    83    1
   103    20    23    1
   104    21    84    1
   105    21    85    1
   106    22    86    1
   107    22    87    1
   108    27    45    1
   109    28    34    1
   110    32    58    1
   111    33    46    2
   112    36    51    1
   113    36    66    1
   114    37    52    1
   115    37    67    1
   116    38    53    1
   117    38    68    1
   118    42    48    1
   119    42    72    1
   120    43    44    2
   121    60    73    1
   122    61    74    1
   123    39    69    1
   124    39    57    1
   125    40    70    1
   126    40    50    1
   127    41    71    1
   128    41    49    1
