@<TRIPOS>MOLECULE
*****
 123 128 0 0 0
SMALL
GASTEIGER

@<TRIPOS>ATOM
     1 C         3.015293   3.223665   3.242725 C.3        1 UNL1     0.0009
     2 C         4.007012   4.785399   3.363211 C.2        1 UNL1     -0.0787
     3 C         5.286833   5.461717   3.389623 C.2        1 UNL1     -0.0649
     4 C         5.58275   7.128595   3.407185 C.2        1 UNL1     -0.0542
     5 C         6.540757   8.140471   3.151434 C.2        1 UNL1     0.0115
     6 C         8.038058   8.400878   2.829567 C.3        1 UNL1     -0.0348
     7 C         6.04121   9.655242   2.970022 C.2        1 UNL1     0.2441
     8 O         6.142748   10.499269   3.8497 O.2        1 UNL1     -0.2702
     9 N         5.719829   10.015308   1.649712 N.am        1 UNL1     -0.2772
     10 C         4.403324   9.720956   1.378615 C.2        1 UNL1     0.1049
     11 C         4.14547   8.473035   1.03159 C.2        1 UNL1     0.0801
     12 C         2.084684   9.990647   2.277786 C.ar        1 UNL1     0.0753
     13 C         1.926377   8.582713   2.074632 C.ar        1 UNL1     0.0305
     14 C         2.906848   7.803183   1.322261 C.2        1 UNL1     0.0924
     15 N         4.985028   7.479469   0.693214 N.pl3        1 UNL1     -0.3170
     16 C         4.191225   6.370376   0.234911 C.3        1 UNL1     0.1275
     17 N         2.874092   6.52523   0.955262 N.2        1 UNL1     -0.2557
     18 C         3.895766   6.606044   -1.243218 C.3        1 UNL1     0.0016
     19 C         5.213698   6.781908   -1.980591 C.3        1 UNL1     0.0026
     20 N         6.018885   5.583125   -1.791853 N.3        1 UNL1     -0.3018
     21 C         6.304191   5.238989   -0.397386 C.3        1 UNL1     0.0026
     22 C         4.966522   5.062457   0.32329 C.3        1 UNL1     0.0016
     23 C         7.155821   5.520479   -2.688566 C.3        1 UNL1     0.0012
     24 C         6.69045   5.270381   -4.131701 C.3        1 UNL1     -0.0339
     25 C         6.56628   6.585552   -4.918443 C.3        1 UNL1     -0.0615
     26 C         7.62861   4.293938   -4.819592 C.3        1 UNL1     -0.0615
     27 C         1.088902   10.747973   2.890153 C.ar        1 UNL1     0.1347
     28 C         -0.120209   10.217983   3.303928 C.ar        1 UNL1     0.0342
     29 C         -0.233869   8.821287   3.138144 C.ar        1 UNL1     0.1435
     30 C         0.76998   8.043844   2.559275 C.ar        1 UNL1     0.0774
     31 O         -1.392122   8.173536   3.390882 O.3        1 UNL1     -0.4436
     32 C         -1.275344   6.931335   2.680832 C.3        1 UNL1     0.3143
     33 C         0.214328   6.707353   2.516751 C.2        1 UNL1     0.2504
     34 C         -1.326525   11.004886   3.734843 C.3        1 UNL1     -0.0327
     35 O         -1.759607   5.898109   3.547543 O.2        1 UNL1     -0.4528
     36 C         -3.189443   3.216874   1.27276 C.3        1 UNL1     0.0854
     37 C         -2.484542   2.415943   0.111232 C.3        1 UNL1     0.0236
     38 C         -2.55862   0.819932   0.249094 C.3        1 UNL1     0.1131
     39 C         -2.13044   0.128346   1.605796 C.3        1 UNL1     0.0200
     40 C         -0.755162   0.623683   2.409345 C.3        1 UNL1     0.0661
     41 C         0.781472   0.82329   1.719039 C.3        1 UNL1     0.0091
     42 C         2.125205   2.003626   2.127194 C.3        1 UNL1     0.0661
     43 C         3.306641   10.633755   1.734195 C.2        1 UNL1     0.2131
     44 O         3.388393   11.823496   1.488083 O.2        1 UNL1     -0.2851
     45 O         1.341095   12.103491   3.091173 O.3        1 UNL1     -0.5056
     46 O         0.810482   5.660087   2.399751 O.2        1 UNL1     -0.2836
     47 C         3.086064   2.435531   4.578321 C.3        1 UNL1     -0.0566
     48 O         3.187056   0.968479   2.135037 O.3        1 UNL1     -0.3909
     49 C         0.644753   0.814017   0.212813 C.3        1 UNL1     -0.0577
     50 O         -1.04135   1.705713   3.272496 O.3        1 UNL1     -0.3910
     51 O         -3.639564   2.448698   2.365795 O.3        1 UNL1     -0.3753
     52 C         -1.2023   3.14706   -0.404784 C.3        1 UNL1     -0.0564
     53 O         -2.203127   0.090915   -1.013635 O.3        1 UNL1     -0.4608
     54 C         -1.806203   -1.218436   -1.090967 C.2        1 UNL1     0.3042
     55 O         -0.692593   -1.644602   -1.394439 O.2        1 UNL1     -0.2512
     56 C         -2.876811   -2.195698   -0.696671 C.3        1 UNL1     0.0332
     57 C         -3.456723   -0.100836   2.469871 C.3        1 UNL1     -0.0567
     58 C         -1.901419   7.164222   1.286083 C.3        1 UNL1     0.0210
     59 C         -4.759884   2.994211   3.060895 C.3        1 UNL1     0.0372
     60 C         -2.391511   4.339546   1.836741 C.2        1 UNL1     -0.0208
     61 C         -2.177904   4.697274   3.103685 C.2        1 UNL1     0.0882
     62 H         2.099085   3.825078   3.282424 H        1 UNL1     0.0365
     63 H         3.21447   5.517282   3.532603 H        1 UNL1     0.0576
     64 H         6.222928   4.921895   3.230167 H        1 UNL1     0.0615
     65 H         4.609416   7.563525   3.649963 H        1 UNL1     0.0622
     66 H         -4.065713   3.679248   0.796937 H        1 UNL1     0.0645
     67 H         -3.131511   2.590729   -0.765945 H        1 UNL1     0.0362
     68 H         -3.648257   0.679831   0.181377 H        1 UNL1     0.0741
     69 H         -1.929954   -0.917538   1.415166 H        1 UNL1     0.0359
     70 H         -0.608855   -0.239315   3.086759 H        1 UNL1     0.0600
     71 H         1.208663   -0.181755   1.904378 H        1 UNL1     0.0348
     72 H         1.470325   1.972546   3.010076 H        1 UNL1     0.0602
     73 H         -2.065166   4.968004   1.045673 H        1 UNL1     0.0628
     74 H         -2.428742   4.08243   3.968719 H        1 UNL1     0.1022
     75 H         8.598424   7.437136   2.76457 H        1 UNL1     0.0279
     76 H         8.254543   8.862975   1.86901 H        1 UNL1     0.0279
     77 H         8.568179   8.904929   3.650911 H        1 UNL1     0.0279
     78 H         6.293207   9.480974   1.000248 H        1 UNL1     0.1553
     79 H         5.933368   7.627107   0.400319 H        1 UNL1     0.1484
     80 H         3.328429   5.753089   -1.634833 H        1 UNL1     0.0317
     81 H         3.265306   7.491185   -1.379953 H        1 UNL1     0.0317
     82 H         5.753286   7.678549   -1.641782 H        1 UNL1     0.0428
     83 H         4.979763   6.950488   -3.032211 H        1 UNL1     0.0428
     84 H         6.841507   4.292746   -0.280221 H        1 UNL1     0.0428
     85 H         6.960573   5.979445   0.080323 H        1 UNL1     0.0428
     86 H         5.210747   4.683555   1.298367 H        1 UNL1     0.0317
     87 H         4.400278   4.241582   -0.133467 H        1 UNL1     0.0317
     88 H         7.674037   6.48761   -2.651109 H        1 UNL1     0.0429
     89 H         7.875884   4.757103   -2.366789 H        1 UNL1     0.0429
     90 H         5.709587   4.780715   -4.113037 H        1 UNL1     0.0308
     91 H         7.515432   7.129515   -4.936209 H        1 UNL1     0.0233
     92 H         6.244027   6.392978   -5.944444 H        1 UNL1     0.0233
     93 H         5.819794   7.26236   -4.485402 H        1 UNL1     0.0233
     94 H         7.416339   4.259145   -5.893634 H        1 UNL1     0.0233
     95 H         8.66512   4.618144   -4.691138 H        1 UNL1     0.0233
     96 H         7.521643   3.284252   -4.413314 H        1 UNL1     0.0233
     97 H         -2.167295   10.361744   3.977132 H        1 UNL1     0.0280
     98 H         -1.132432   11.598681   4.637612 H        1 UNL1     0.0280
     99 H         -1.633666   11.683881   2.922609 H        1 UNL1     0.0280
     100 H         0.686466   12.680087   2.738155 H        1 UNL1     0.2922
     101 H         2.466021   1.541835   4.511156 H        1 UNL1     0.0236
     102 H         2.836014   3.042389   5.447908 H        1 UNL1     0.0236
     103 H         4.101534   2.056926   4.78246 H        1 UNL1     0.0236
     104 H         3.301209   0.670027   3.058544 H        1 UNL1     0.2098
     105 H         0.194972   1.712199   -0.202852 H        1 UNL1     0.0234
     106 H         1.559013   0.565311   -0.325892 H        1 UNL1     0.0234
     107 H         0.0   0.0   -0.0 H        1 UNL1     0.0234
     108 H         -1.318651   2.457099   2.713666 H        1 UNL1     0.2098
     109 H         -0.456452   3.289352   0.389682 H        1 UNL1     0.0234
     110 H         -0.735832   2.645977   -1.259808 H        1 UNL1     0.0234
     111 H         -1.433194   4.153198   -0.779378 H        1 UNL1     0.0234
     112 H         -2.494768   -3.218049   -0.775337 H        1 UNL1     0.0342
     113 H         -3.263316   -1.998811   0.302175 H        1 UNL1     0.0342
     114 H         -3.712091   -2.093029   -1.403021 H        1 UNL1     0.0342
     115 H         -4.175016   -0.750472   1.951012 H        1 UNL1     0.0234
     116 H         -3.275078   -0.53365   3.455633 H        1 UNL1     0.0234
     117 H         -4.057162   0.815146   2.605491 H        1 UNL1     0.0234
     118 H         -3.000337   7.058722   1.302056 H        1 UNL1     0.0309
     119 H         -1.641167   8.136238   0.855205 H        1 UNL1     0.0309
     120 H         -1.586248   6.413473   0.553179 H        1 UNL1     0.0309
     121 H         -4.45597   3.956308   3.472434 H        1 UNL1     0.0524
     122 H         -5.618804   3.175083   2.393378 H        1 UNL1     0.0524
     123 H         -5.068639   2.325615   3.859483 H        1 UNL1     0.0524
@<TRIPOS>BOND
     1     1     2    1
     2     1    42    1
     3     2     3    2
     4     3     4    1
     5     4     5    2
     6     5     7    1
     7     6    75    1
     8     6    76    1
     9     6    77    1
    10     7     9   am
    11     9    10    1
    12    10    11    2
    13    10    43    1
    14    11    14    1
    15    11    15    1
    16    12    13   ar
    17    12    27   ar
    18    12    43    1
    19    13    14    1
    20    13    30   ar
    21    14    17    2
    22    15    16    1
    23    16    17    1
    24    16    18    1
    25    16    22    1
    26    18    19    1
    27    19    20    1
    28    20    21    1
    29    21    22    1
    30    23    24    1
    31    23    88    1
    32    23    89    1
    33    24    25    1
    34    24    26    1
    35    24    90    1
    36    25    91    1
    37    25    92    1
    38    25    93    1
    39    26    94    1
    40    26    95    1
    41    26    96    1
    42    27    28   ar
    43    28    29   ar
    44    29    30   ar
    45    29    31    1
    46    30    33    1
    47    31    32    1
    48    32    33    1
    49    32    35    1
    50    34    97    1
    51    34    98    1
    52    34    99    1
    53    35    61    1
    54    36    37    1
    55    36    60    1
    56    37    38    1
    57    38    39    1
    58    39    40    1
    59    40    41    1
    60    41    42    1
    61    45   100    1
    62    47   101    1
    63    47   102    1
    64    47   103    1
    65    48   104    1
    66    49   105    1
    67    49   106    1
    68    49   107    1
    69    50   108    1
    70    51    59    1
    71    52   109    1
    72    52   110    1
    73    52   111    1
    74    53    54    1
    75    54    55    2
    76    54    56    1
    77    56   112    1
    78    56   113    1
    79    56   114    1
    80    57   115    1
    81    57   116    1
    82    57   117    1
    83    58   118    1
    84    58   119    1
    85    58   120    1
    86    59   121    1
    87    59   122    1
    88    59   123    1
    89    60    61    2
    90     1    47    1
    91     1    62    1
    92     2    63    1
    93     3    64    1
    94     4    65    1
    95     5     6    1
    96     7     8    2
    97     9    78    1
    98    15    79    1
    99    18    80    1
   100    18    81    1
   101    19    82    1
   102    19    83    1
   103    20    23    1
   104    21    84    1
   105    21    85    1
   106    22    86    1
   107    22    87    1
   108    27    45    1
   109    28    34    1
   110    32    58    1
   111    33    46    2
   112    36    51    1
   113    36    66    1
   114    37    52    1
   115    37    67    1
   116    38    53    1
   117    38    68    1
   118    42    48    1
   119    42    72    1
   120    43    44    2
   121    60    73    1
   122    61    74    1
   123    39    69    1
   124    39    57    1
   125    40    70    1
   126    40    50    1
   127    41    71    1
   128    41    49    1
