@<TRIPOS>MOLECULE
*****
 123 128 0 0 0
SMALL
GASTEIGER

@<TRIPOS>ATOM
     1 C         5.117376   1.888698   0.506982 C.3        1 UNL1     0.0009
     2 C         6.516242   2.772774   -0.328854 C.2        1 UNL1     -0.0787
     3 C         7.796701   2.742569   -1.003804 C.2        1 UNL1     -0.0649
     4 C         8.620707   4.03083   -1.730272 C.2        1 UNL1     -0.0542
     5 C         9.622606   4.388149   -2.666007 C.2        1 UNL1     0.0115
     6 C         10.768701   3.830663   -3.554262 C.3        1 UNL1     -0.0348
     7 C         9.656424   5.889767   -3.232564 C.2        1 UNL1     0.2441
     8 O         10.450176   6.732453   -2.837133 O.2        1 UNL1     -0.2702
     9 N         8.891295   6.098738   -4.393193 N.am        1 UNL1     -0.2772
     10 C         7.596558   6.426547   -4.062253 C.2        1 UNL1     0.1049
     11 C         6.790999   5.415404   -3.792277 C.2        1 UNL1     0.0801
     12 C         6.245778   7.942847   -2.601582 C.ar        1 UNL1     0.0753
     13 C         5.533947   6.774575   -2.180815 C.ar        1 UNL1     0.0305
     14 C         5.697369   5.492252   -2.861984 C.2        1 UNL1     0.0924
     15 N         6.964107   4.096974   -3.987996 N.pl3        1 UNL1     -0.3170
     16 C         5.720492   3.440528   -3.683438 C.3        1 UNL1     0.1275
     17 N         5.053739   4.343533   -2.674604 N.2        1 UNL1     -0.2557
     18 C         4.857965   3.500268   -4.94049 C.3        1 UNL1     0.0016
     19 C         5.631634   2.876718   -6.091233 C.3        1 UNL1     0.0026
     20 N         5.957526   1.500317   -5.744329 N.3        1 UNL1     -0.3018
     21 C         6.73441   1.336533   -4.513884 C.3        1 UNL1     0.0026
     22 C         5.936597   1.965779   -3.370451 C.3        1 UNL1     0.0016
     23 C         6.426439   0.728866   -6.878184 C.3        1 UNL1     0.0012
     24 C         5.275321   0.461037   -7.860503 C.3        1 UNL1     -0.0339
     25 C         5.254492   1.495411   -8.99791 C.3        1 UNL1     -0.0615
     26 C         5.367221   -0.957164   -8.396262 C.3        1 UNL1     -0.0615
     27 C         5.995497   9.186631   -2.026708 C.ar        1 UNL1     0.1347
     28 C         5.03283   9.392678   -1.054666 C.ar        1 UNL1     0.0342
     29 C         4.378786   8.219773   -0.621441 C.ar        1 UNL1     0.1435
     30 C         4.644612   6.961329   -1.16262 C.ar        1 UNL1     0.0774
     31 O         3.339627   8.269685   0.240339 O.3        1 UNL1     -0.4436
     32 C         2.665465   7.013939   0.068644 C.3        1 UNL1     0.3143
     33 C         3.713143   6.075755   -0.49562 C.2        1 UNL1     0.2504
     34 C         4.536108   10.727983   -0.574741 C.3        1 UNL1     -0.0327
     35 O         2.330448   6.528283   1.37446 O.2        1 UNL1     -0.4528
     36 C         -0.837603   4.482514   0.942749 C.3        1 UNL1     0.0854
     37 C         -1.099452   3.235567   0.013189 C.3        1 UNL1     0.0236
     38 C         -1.645563   1.931345   0.769834 C.3        1 UNL1     0.1131
     39 C         -0.89146   1.394312   2.052485 C.3        1 UNL1     0.0200
     40 C         0.774359   1.312577   2.080847 C.3        1 UNL1     0.0661
     41 C         1.755383   0.613426   0.886531 C.3        1 UNL1     0.0091
     42 C         3.443977   1.057301   0.323479 C.3        1 UNL1     0.0661
     43 C         7.196002   7.802544   -3.732797 C.2        1 UNL1     0.2131
     44 O         7.55613   8.734516   -4.428838 O.2        1 UNL1     -0.2851
     45 O         6.764027   10.264564   -2.461289 O.3        1 UNL1     -0.5056
     46 O         3.776677   4.870678   -0.397602 O.2        1 UNL1     -0.2836
     47 C         5.539275   1.436496   1.930884 C.3        1 UNL1     -0.0566
     48 O         3.947497   -0.336935   0.364596 O.3        1 UNL1     -0.3909
     49 C         0.922964   0.381908   -0.354828 C.3        1 UNL1     -0.0577
     50 O         1.329319   2.541912   2.503316 O.3        1 UNL1     -0.3910
     51 O         -0.945359   4.250818   2.329161 O.3        1 UNL1     -0.3753
     52 C         -0.056926   3.146964   -1.148808 C.3        1 UNL1     -0.0564
     53 O         -2.213104   0.894222   -0.154611 O.3        1 UNL1     -0.4608
     54 C         -2.382245   -0.431977   0.146253 C.2        1 UNL1     0.3042
     55 O         -1.774825   -1.389516   -0.331239 O.2        1 UNL1     -0.2512
     56 C         -3.397025   -0.679022   1.226023 C.3        1 UNL1     0.0332
     57 C         -1.629856   2.000554   3.335222 C.3        1 UNL1     -0.0567
     58 C         1.574672   7.245981   -1.002737 C.3        1 UNL1     0.0210
     59 C         -1.330036   5.388937   3.098949 C.3        1 UNL1     0.0372
     60 C         0.464472   5.168892   0.722188 C.2        1 UNL1     -0.0208
     61 C         1.365351   5.615858   1.598192 C.2        1 UNL1     0.0882
     62 H         4.604176   2.850872   0.623425 H        1 UNL1     0.0365
     63 H         6.209964   3.812185   -0.193612 H        1 UNL1     0.0576
     64 H         8.290124   1.800582   -1.253408 H        1 UNL1     0.0615
     65 H         8.100679   4.916895   -1.356182 H        1 UNL1     0.0622
     66 H         -1.612636   5.207516   0.656845 H        1 UNL1     0.0645
     67 H         -1.98024   3.527275   -0.584873 H        1 UNL1     0.0362
     68 H         -2.606615   2.321366   1.138325 H        1 UNL1     0.0741
     69 H         -1.182229   0.366175   2.22218 H        1 UNL1     0.0359
     70 H         0.917306   0.633666   2.943231 H        1 UNL1     0.0600
     71 H         1.841297   -0.416367   1.285407 H        1 UNL1     0.0348
     72 H         3.325479   1.514508   1.316573 H        1 UNL1     0.0602
     73 H         0.568002   5.398367   -0.309253 H        1 UNL1     0.0628
     74 H         1.362825   5.376001   2.662006 H        1 UNL1     0.1022
     75 H         10.85703   2.724245   -3.43149 H        1 UNL1     0.0279
     76 H         10.645057   3.937909   -4.629567 H        1 UNL1     0.0279
     77 H         11.763255   4.165424   -3.224871 H        1 UNL1     0.0279
     78 H         8.859762   5.241448   -4.941041 H        1 UNL1     0.1553
     79 H         7.641534   3.711981   -4.620298 H        1 UNL1     0.1484
     80 H         3.917724   2.967201   -4.754603 H        1 UNL1     0.0317
     81 H         4.589557   4.534307   -5.18209 H        1 UNL1     0.0317
     82 H         6.539369   3.450361   -6.329694 H        1 UNL1     0.0428
     83 H         4.999131   2.931391   -6.977801 H        1 UNL1     0.0428
     84 H         6.897096   0.291134   -4.233732 H        1 UNL1     0.0428
     85 H         7.748756   1.747092   -4.613186 H        1 UNL1     0.0428
     86 H         6.468137   1.711428   -2.472253 H        1 UNL1     0.0317
     87 H         4.97725   1.447142   -3.253124 H        1 UNL1     0.0317
     88 H         7.197488   1.315248   -7.39484 H        1 UNL1     0.0429
     89 H         6.897654   -0.208413   -6.555323 H        1 UNL1     0.0429
     90 H         4.322451   0.516198   -7.320865 H        1 UNL1     0.0308
     91 H         6.200954   1.502122   -9.546788 H        1 UNL1     0.0233
     92 H         4.437945   1.288228   -9.693563 H        1 UNL1     0.0233
     93 H         5.092183   2.516192   -8.631171 H        1 UNL1     0.0233
     94 H         4.671175   -1.091289   -9.231347 H        1 UNL1     0.0233
     95 H         6.378017   -1.152425   -8.765215 H        1 UNL1     0.0233
     96 H         5.125434   -1.69215   -7.623408 H        1 UNL1     0.0233
     97 H         3.75004   10.627464   0.167703 H        1 UNL1     0.0280
     98 H         5.329095   11.316474   -0.095047 H        1 UNL1     0.0280
     99 H         4.135249   11.300687   -1.427042 H        1 UNL1     0.0280
     100 H         6.266161   11.00455   -2.761576 H        1 UNL1     0.2922
     101 H         4.69719   0.956144   2.428689 H        1 UNL1     0.0236
     102 H         5.962141   2.242958   2.529038 H        1 UNL1     0.0236
     103 H         6.326092   0.664233   1.904006 H        1 UNL1     0.0236
     104 H         4.377175   -0.469894   1.232161 H        1 UNL1     0.2098
     105 H         0.712488   1.280991   -0.928553 H        1 UNL1     0.0234
     106 H         1.292382   -0.406652   -1.010291 H        1 UNL1     0.0234
     107 H         0.0   -0.0   0.0 H        1 UNL1     0.0234
     108 H         1.098529   3.210917   1.830311 H        1 UNL1     0.2098
     109 H         0.973949   3.063352   -0.777301 H        1 UNL1     0.0234
     110 H         -0.261418   2.32998   -1.849138 H        1 UNL1     0.0234
     111 H         -0.074192   4.047147   -1.777552 H        1 UNL1     0.0234
     112 H         -3.479551   -1.752652   1.420588 H        1 UNL1     0.0342
     113 H         -3.164522   -0.133204   2.139187 H        1 UNL1     0.0342
     114 H         -4.373369   -0.325874   0.866576 H        1 UNL1     0.0342
     115 H         -2.682441   1.689553   3.385527 H        1 UNL1     0.0234
     116 H         -1.162421   1.732138   4.284699 H        1 UNL1     0.0234
     117 H         -1.733378   3.098878   3.305068 H        1 UNL1     0.0234
     118 H         0.658027   7.686144   -0.572591 H        1 UNL1     0.0309
     119 H         1.915523   7.870431   -1.834654 H        1 UNL1     0.0309
     120 H         1.219868   6.311333   -1.45068 H        1 UNL1     0.0309
     121 H         -0.555347   6.145684   2.978337 H        1 UNL1     0.0524
     122 H         -2.279898   5.827831   2.750852 H        1 UNL1     0.0524
     123 H         -1.429651   5.118105   4.146242 H        1 UNL1     0.0524
@<TRIPOS>BOND
     1     1     2    1
     2     1    42    1
     3     2     3    2
     4     3     4    1
     5     4     5    2
     6     5     7    1
     7     6    75    1
     8     6    76    1
     9     6    77    1
    10     7     9   am
    11     9    10    1
    12    10    11    2
    13    10    43    1
    14    11    14    1
    15    11    15    1
    16    12    13   ar
    17    12    27   ar
    18    12    43    1
    19    13    14    1
    20    13    30   ar
    21    14    17    2
    22    15    16    1
    23    16    17    1
    24    16    18    1
    25    16    22    1
    26    18    19    1
    27    19    20    1
    28    20    21    1
    29    21    22    1
    30    23    24    1
    31    23    88    1
    32    23    89    1
    33    24    25    1
    34    24    26    1
    35    24    90    1
    36    25    91    1
    37    25    92    1
    38    25    93    1
    39    26    94    1
    40    26    95    1
    41    26    96    1
    42    27    28   ar
    43    28    29   ar
    44    29    30   ar
    45    29    31    1
    46    30    33    1
    47    31    32    1
    48    32    33    1
    49    32    35    1
    50    34    97    1
    51    34    98    1
    52    34    99    1
    53    35    61    1
    54    36    37    1
    55    36    60    1
    56    37    38    1
    57    38    39    1
    58    39    40    1
    59    40    41    1
    60    41    42    1
    61    45   100    1
    62    47   101    1
    63    47   102    1
    64    47   103    1
    65    48   104    1
    66    49   105    1
    67    49   106    1
    68    49   107    1
    69    50   108    1
    70    51    59    1
    71    52   109    1
    72    52   110    1
    73    52   111    1
    74    53    54    1
    75    54    55    2
    76    54    56    1
    77    56   112    1
    78    56   113    1
    79    56   114    1
    80    57   115    1
    81    57   116    1
    82    57   117    1
    83    58   118    1
    84    58   119    1
    85    58   120    1
    86    59   121    1
    87    59   122    1
    88    59   123    1
    89    60    61    2
    90     1    47    1
    91     1    62    1
    92     2    63    1
    93     3    64    1
    94     4    65    1
    95     5     6    1
    96     7     8    2
    97     9    78    1
    98    15    79    1
    99    18    80    1
   100    18    81    1
   101    19    82    1
   102    19    83    1
   103    20    23    1
   104    21    84    1
   105    21    85    1
   106    22    86    1
   107    22    87    1
   108    27    45    1
   109    28    34    1
   110    32    58    1
   111    33    46    2
   112    36    51    1
   113    36    66    1
   114    37    52    1
   115    37    67    1
   116    38    53    1
   117    38    68    1
   118    42    48    1
   119    42    72    1
   120    43    44    2
   121    60    73    1
   122    61    74    1
   123    39    69    1
   124    39    57    1
   125    40    70    1
   126    40    50    1
   127    41    71    1
   128    41    49    1
