@<TRIPOS>MOLECULE
*****
 123 128 0 0 0
SMALL
GASTEIGER

@<TRIPOS>ATOM
     1 C         5.16811   1.74592   0.491604 C.3        1 UNL1     0.0009
     2 C         6.605205   2.55148   -0.358614 C.2        1 UNL1     -0.0787
     3 C         7.887014   2.45278   -1.024399 C.2        1 UNL1     -0.0649
     4 C         8.765099   3.687628   -1.779696 C.2        1 UNL1     -0.0542
     5 C         9.785256   3.979968   -2.718255 C.2        1 UNL1     0.0115
     6 C         10.9131   3.354143   -3.58407 C.3        1 UNL1     -0.0348
     7 C         9.881368   5.463327   -3.324389 C.2        1 UNL1     0.2441
     8 O         10.705698   6.284441   -2.946529 O.2        1 UNL1     -0.2702
     9 N         9.131227   5.670988   -4.494994 N.am        1 UNL1     -0.2772
     10 C         7.848726   6.058272   -4.181109 C.2        1 UNL1     0.1049
     11 C         7.002431   5.087235   -3.889398 C.2        1 UNL1     0.0801
     12 C         6.551224   7.665258   -2.769932 C.ar        1 UNL1     0.0753
     13 C         5.791578   6.537633   -2.322707 C.ar        1 UNL1     0.0305
     14 C         5.907799   5.232033   -2.968426 C.2        1 UNL1     0.0924
     15 N         7.12434   3.758232   -4.048825 N.pl3        1 UNL1     -0.3170
     16 C         5.85417   3.159659   -3.734767 C.3        1 UNL1     0.1275
     17 N         5.218304   4.114985   -2.754589 N.2        1 UNL1     -0.2557
     18 C         5.001321   3.219501   -4.9984 C.3        1 UNL1     0.0016
     19 C         5.755809   2.535291   -6.127203 C.3        1 UNL1     0.0026
     20 N         6.025228   1.156949   -5.741698 N.3        1 UNL1     -0.3018
     21 C         6.788532   0.995837   -4.502432 C.3        1 UNL1     0.0026
     22 C         6.010182   1.686489   -3.381242 C.3        1 UNL1     0.0016
     23 C         6.46927   0.337454   -6.851607 C.3        1 UNL1     0.0012
     24 C         5.313667   0.08884   -7.833711 C.3        1 UNL1     -0.0339
     25 C         5.339725   1.092297   -8.998379 C.3        1 UNL1     -0.0615
     26 C         5.352285   -1.345762   -8.330908 C.3        1 UNL1     -0.0615
     27 C         6.347253   8.932925   -2.229993 C.ar        1 UNL1     0.1347
     28 C         5.388363   9.202743   -1.269899 C.ar        1 UNL1     0.0342
     29 C         4.68621   8.068551   -0.809732 C.ar        1 UNL1     0.1435
     30 C         4.904958   6.786533   -1.3155 C.ar        1 UNL1     0.0774
     31 O         3.645303   8.182458   0.043816 O.3        1 UNL1     -0.4436
     32 C         2.922965   6.950058   -0.09863 C.3        1 UNL1     0.3143
     33 C         3.935719   5.956546   -0.631056 C.2        1 UNL1     0.2504
     34 C         4.942264   10.568975   -0.828871 C.3        1 UNL1     -0.0327
     35 O         2.562136   6.513224   1.217512 O.2        1 UNL1     -0.4528
     36 C         -0.68195   4.582862   0.820403 C.3        1 UNL1     0.0854
     37 C         -0.987955   3.322661   -0.077248 C.3        1 UNL1     0.0236
     38 C         -1.589156   2.061744   0.7104 C.3        1 UNL1     0.1131
     39 C         -0.863638   1.530105   2.011651 C.3        1 UNL1     0.0200
     40 C         0.797478   1.383665   2.052728 C.3        1 UNL1     0.0661
     41 C         1.756398   0.61461   0.883696 C.3        1 UNL1     0.0091
     42 C         3.464159   0.976395   0.319722 C.3        1 UNL1     0.0661
     43 C         7.501118   7.457322   -3.890969 C.2        1 UNL1     0.2131
     44 O         7.901455   8.355361   -4.609296 O.2        1 UNL1     -0.2851
     45 O         7.160055   9.96771   -2.68826 O.3        1 UNL1     -0.5056
     46 O         3.951071   4.752971   -0.50057 O.2        1 UNL1     -0.2836
     47 C         5.564294   1.315886   1.92969 C.3        1 UNL1     -0.0566
     48 O         3.911973   -0.434969   0.401154 O.3        1 UNL1     -0.3909
     49 C         0.922043   0.382761   -0.3563 C.3        1 UNL1     -0.0577
     50 O         1.39834   2.601114   2.445803 O.3        1 UNL1     -0.3910
     51 O         -0.806089   4.392922   2.211785 O.3        1 UNL1     -0.3753
     52 C         0.056372   3.161907   -1.229848 C.3        1 UNL1     -0.0564
     53 O         -2.192347   1.023296   -0.189663 O.3        1 UNL1     -0.4608
     54 C         -2.427442   -0.283411   0.149713 C.2        1 UNL1     0.3042
     55 O         -1.858893   -1.282741   -0.288386 O.2        1 UNL1     -0.2512
     56 C         -3.467509   -0.448754   1.220991 C.3        1 UNL1     0.0332
     57 C         -1.584262   2.199185   3.273082 C.3        1 UNL1     -0.0567
     58 C         1.847861   7.195979   -1.182698 C.3        1 UNL1     0.0210
     59 C         -1.118628   5.571919   2.952156 C.3        1 UNL1     0.0372
     60 C         0.647373   5.21129   0.589884 C.2        1 UNL1     -0.0208
     61 C         1.560575   5.64583   1.459357 C.2        1 UNL1     0.0882
     62 H         4.69272   2.730326   0.579121 H        1 UNL1     0.0365
     63 H         6.339525   3.605397   -0.253052 H        1 UNL1     0.0576
     64 H         8.344142   1.485737   -1.245691 H        1 UNL1     0.0615
     65 H         8.27852   4.603204   -1.432644 H        1 UNL1     0.0622
     66 H         -1.426213   5.329861   0.510385 H        1 UNL1     0.0645
     67 H         -1.853362   3.632633   -0.688433 H        1 UNL1     0.0362
     68 H         -2.535978   2.499045   1.062278 H        1 UNL1     0.0741
     69 H         -1.195695   0.519139   2.206831 H        1 UNL1     0.0359
     70 H         0.908936   0.723071   2.933779 H        1 UNL1     0.0600
     71 H         1.799451   -0.406678   1.310399 H        1 UNL1     0.0348
     72 H         3.35858   1.46443   1.299513 H        1 UNL1     0.0602
     73 H         0.765331   5.408715   -0.446628 H        1 UNL1     0.0628
     74 H         1.542962   5.434929   2.529146 H        1 UNL1     0.1022
     75 H         10.956995   2.248805   -3.431309 H        1 UNL1     0.0279
     76 H         10.799465   3.437241   -4.662611 H        1 UNL1     0.0279
     77 H         11.918352   3.658233   -3.257423 H        1 UNL1     0.0279
     78 H         9.068737   4.801193   -5.019998 H        1 UNL1     0.1553
     79 H         7.789354   3.330026   -4.666344 H        1 UNL1     0.1484
     80 H         4.039785   2.729039   -4.804336 H        1 UNL1     0.0317
     81 H         4.775258   4.256437   -5.269156 H        1 UNL1     0.0317
     82 H         6.686746   3.06615   -6.375109 H        1 UNL1     0.0428
     83 H         5.130647   2.590974   -7.018899 H        1 UNL1     0.0428
     84 H         6.908305   -0.04725   -4.193506 H        1 UNL1     0.0428
     85 H         7.818817   1.36334   -4.606212 H        1 UNL1     0.0428
     86 H         6.526512   1.435642   -2.47324 H        1 UNL1     0.0317
     87 H         5.030487   1.20935   -3.256217 H        1 UNL1     0.0317
     88 H         7.265601   0.878943   -7.378809 H        1 UNL1     0.0429
     89 H         6.901373   -0.60863   -6.500914 H        1 UNL1     0.0429
     90 H         4.360887   0.195939   -7.301778 H        1 UNL1     0.0308
     91 H         6.289784   1.049182   -9.539335 H        1 UNL1     0.0233
     92 H         4.521156   0.896854   -9.695054 H        1 UNL1     0.0233
     93 H         5.212859   2.127887   -8.660304 H        1 UNL1     0.0233
     94 H         4.657046   -1.474396   -9.167526 H        1 UNL1     0.0233
     95 H         6.356904   -1.590986   -8.686674 H        1 UNL1     0.0233
     96 H         5.076074   -2.049524   -7.540721 H        1 UNL1     0.0233
     97 H         4.146828   10.519497   -0.091265 H        1 UNL1     0.0280
     98 H         5.754543   11.137317   -0.35723 H        1 UNL1     0.0280
     99 H         4.571784   11.13503   -1.699171 H        1 UNL1     0.0280
     100 H         6.693407   10.718382   -3.0113 H        1 UNL1     0.2922
     101 H         4.701272   0.882595   2.434772 H        1 UNL1     0.0236
     102 H         6.015532   2.12086   2.508813 H        1 UNL1     0.0236
     103 H         6.320114   0.512812   1.928376 H        1 UNL1     0.0236
     104 H         4.33148   -0.561377   1.274656 H        1 UNL1     0.2098
     105 H         0.70985   1.281834   -0.92941 H        1 UNL1     0.0234
     106 H         1.29098   -0.405312   -1.012618 H        1 UNL1     0.0234
     107 H         0.0   -0.0   0.0 H        1 UNL1     0.0234
     108 H         1.200709   3.259441   1.752034 H        1 UNL1     0.2098
     109 H         1.081164   3.047801   -0.849726 H        1 UNL1     0.0234
     110 H         -0.176543   2.335082   -1.909446 H        1 UNL1     0.0234
     111 H         0.078005   4.044854   -1.882446 H        1 UNL1     0.0234
     112 H         -3.60057   -1.51049   1.449807 H        1 UNL1     0.0342
     113 H         -3.223948   0.116931   2.119057 H        1 UNL1     0.0342
     114 H         -4.421922   -0.065313   0.834684 H        1 UNL1     0.0342
     115 H         -2.654016   1.951471   3.311182 H        1 UNL1     0.0234
     116 H         -1.147908   1.91898   4.233878 H        1 UNL1     0.0234
     117 H         -1.622275   3.301072   3.224698 H        1 UNL1     0.0234
     118 H         0.947066   7.683275   -0.770244 H        1 UNL1     0.0309
     119 H         2.217504   7.783952   -2.02878 H        1 UNL1     0.0309
     120 H         1.458773   6.264321   -1.607821 H        1 UNL1     0.0309
     121 H         -0.297211   6.274678   2.815185 H        1 UNL1     0.0524
     122 H         -2.038181   6.061531   2.590574 H        1 UNL1     0.0524
     123 H         -1.236677   5.33401   4.005511 H        1 UNL1     0.0524
@<TRIPOS>BOND
     1     1     2    1
     2     1    42    1
     3     2     3    2
     4     3     4    1
     5     4     5    2
     6     5     7    1
     7     6    75    1
     8     6    76    1
     9     6    77    1
    10     7     9   am
    11     9    10    1
    12    10    11    2
    13    10    43    1
    14    11    14    1
    15    11    15    1
    16    12    13   ar
    17    12    27   ar
    18    12    43    1
    19    13    14    1
    20    13    30   ar
    21    14    17    2
    22    15    16    1
    23    16    17    1
    24    16    18    1
    25    16    22    1
    26    18    19    1
    27    19    20    1
    28    20    21    1
    29    21    22    1
    30    23    24    1
    31    23    88    1
    32    23    89    1
    33    24    25    1
    34    24    26    1
    35    24    90    1
    36    25    91    1
    37    25    92    1
    38    25    93    1
    39    26    94    1
    40    26    95    1
    41    26    96    1
    42    27    28   ar
    43    28    29   ar
    44    29    30   ar
    45    29    31    1
    46    30    33    1
    47    31    32    1
    48    32    33    1
    49    32    35    1
    50    34    97    1
    51    34    98    1
    52    34    99    1
    53    35    61    1
    54    36    37    1
    55    36    60    1
    56    37    38    1
    57    38    39    1
    58    39    40    1
    59    40    41    1
    60    41    42    1
    61    45   100    1
    62    47   101    1
    63    47   102    1
    64    47   103    1
    65    48   104    1
    66    49   105    1
    67    49   106    1
    68    49   107    1
    69    50   108    1
    70    51    59    1
    71    52   109    1
    72    52   110    1
    73    52   111    1
    74    53    54    1
    75    54    55    2
    76    54    56    1
    77    56   112    1
    78    56   113    1
    79    56   114    1
    80    57   115    1
    81    57   116    1
    82    57   117    1
    83    58   118    1
    84    58   119    1
    85    58   120    1
    86    59   121    1
    87    59   122    1
    88    59   123    1
    89    60    61    2
    90     1    47    1
    91     1    62    1
    92     2    63    1
    93     3    64    1
    94     4    65    1
    95     5     6    1
    96     7     8    2
    97     9    78    1
    98    15    79    1
    99    18    80    1
   100    18    81    1
   101    19    82    1
   102    19    83    1
   103    20    23    1
   104    21    84    1
   105    21    85    1
   106    22    86    1
   107    22    87    1
   108    27    45    1
   109    28    34    1
   110    32    58    1
   111    33    46    2
   112    36    51    1
   113    36    66    1
   114    37    52    1
   115    37    67    1
   116    38    53    1
   117    38    68    1
   118    42    48    1
   119    42    72    1
   120    43    44    2
   121    60    73    1
   122    61    74    1
   123    39    69    1
   124    39    57    1
   125    40    70    1
   126    40    50    1
   127    41    71    1
   128    41    49    1
