@<TRIPOS>MOLECULE
*****
 123 128 0 0 0
SMALL
GASTEIGER

@<TRIPOS>ATOM
     1 C         5.158735   1.781906   0.460267 C.3        1 UNL1     0.0009
     2 C         6.583824   2.600485   -0.397688 C.2        1 UNL1     -0.0787
     3 C         7.861598   2.513158   -1.072755 C.2        1 UNL1     -0.0649
     4 C         8.725214   3.756611   -1.830613 C.2        1 UNL1     -0.0542
     5 C         9.736545   4.059159   -2.775469 C.2        1 UNL1     0.0115
     6 C         10.862832   3.444157   -3.65101 C.3        1 UNL1     -0.0348
     7 C         9.81745   5.544912   -3.377947 C.2        1 UNL1     0.2441
     8 O         10.638353   6.37101   -3.003506 O.2        1 UNL1     -0.2702
     9 N         9.057561   5.750371   -4.542639 N.am        1 UNL1     -0.2772
     10 C         7.774487   6.127272   -4.218617 C.2        1 UNL1     0.1049
     11 C         6.937447   5.149182   -3.923788 C.2        1 UNL1     0.0801
     12 C         6.47517   7.720592   -2.793682 C.ar        1 UNL1     0.0753
     13 C         5.727024   6.586115   -2.344409 C.ar        1 UNL1     0.0305
     14 C         5.848301   5.283259   -2.994723 C.2        1 UNL1     0.0924
     15 N         7.068015   3.821576   -4.087933 N.pl3        1 UNL1     -0.3170
     16 C         5.804536   3.212742   -3.766694 C.3        1 UNL1     0.1275
     17 N         5.168579   4.160541   -2.779293 N.2        1 UNL1     -0.2557
     18 C         4.942377   3.269893   -5.024119 C.3        1 UNL1     0.0016
     19 C         5.693904   2.594503   -6.160184 C.3        1 UNL1     0.0026
     20 N         5.976181   1.217093   -5.780594 N.3        1 UNL1     -0.3018
     21 C         6.749372   1.058083   -4.547201 C.3        1 UNL1     0.0026
     22 C         5.973885   1.739761   -3.418561 C.3        1 UNL1     0.0016
     23 C         6.418408   0.404074   -6.895978 C.3        1 UNL1     0.0012
     24 C         5.256698   0.146085   -7.868412 C.3        1 UNL1     -0.0339
     25 C         5.257661   1.157358   -9.026593 C.3        1 UNL1     -0.0615
     26 C         5.309937   -1.284592   -8.375472 C.3        1 UNL1     -0.0615
     27 C         6.265679   8.985171   -2.248637 C.ar        1 UNL1     0.1347
     28 C         5.311624   9.245154   -1.281043 C.ar        1 UNL1     0.0342
     29 C         4.621108   8.104497   -0.819251 C.ar        1 UNL1     0.1435
     30 C         4.84572   6.825581   -1.330271 C.ar        1 UNL1     0.0774
     31 O         3.585437   8.208274   0.041924 O.3        1 UNL1     -0.4436
     32 C         2.87121   6.970984   -0.099024 C.3        1 UNL1     0.3143
     33 C         3.887474   5.986504   -0.641446 C.2        1 UNL1     0.2504
     34 C         4.858596   10.606789   -0.832917 C.3        1 UNL1     -0.0327
     35 O         2.522901   6.527738   1.218347 O.2        1 UNL1     -0.4528
     36 C         -0.709598   4.574609   0.838448 C.3        1 UNL1     0.0854
     37 C         -1.012636   3.314752   -0.060691 C.3        1 UNL1     0.0236
     38 C         -1.598963   2.047183   0.727494 C.3        1 UNL1     0.1131
     39 C         -0.860388   1.517203   2.022059 C.3        1 UNL1     0.0200
     40 C         0.80201   1.38292   2.051028 C.3        1 UNL1     0.0661
     41 C         1.7583   0.624311   0.87305 C.3        1 UNL1     0.0091
     42 C         3.459329   1.00031   0.298135 C.3        1 UNL1     0.0661
     43 C         7.418638   7.522882   -3.921972 C.2        1 UNL1     0.2131
     44 O         7.807273   8.425902   -4.640481 O.2        1 UNL1     -0.2851
     45 O         7.067585   10.027237   -2.709597 O.3        1 UNL1     -0.5056
     46 O         3.912611   4.782708   -0.514572 O.2        1 UNL1     -0.2836
     47 C         5.56821   1.350704   1.894274 C.3        1 UNL1     -0.0566
     48 O         3.918091   -0.407934   0.372309 O.3        1 UNL1     -0.3909
     49 C         0.91695   0.38985   -0.361718 C.3        1 UNL1     -0.0577
     50 O         1.396646   2.603645   2.443407 O.3        1 UNL1     -0.3910
     51 O         -0.822518   4.379783   2.23011 O.3        1 UNL1     -0.3753
     52 C         0.024691   3.16501   -1.221069 C.3        1 UNL1     -0.0564
     53 O         -2.200821   1.006884   -0.171322 O.3        1 UNL1     -0.4608
     54 C         -2.411791   -0.30563   0.161436 C.2        1 UNL1     0.3042
     55 O         -1.836041   -1.293284   -0.293417 O.2        1 UNL1     -0.2512
     56 C         -3.432244   -0.494128   1.247648 C.3        1 UNL1     0.0332
     57 C         -1.577005   2.177335   3.290467 C.3        1 UNL1     -0.0567
     58 C         1.786703   7.212053   -1.174784 C.3        1 UNL1     0.0210
     59 C         -1.177104   5.545993   2.971789 C.3        1 UNL1     0.0372
     60 C         0.613401   5.213495   0.600416 C.2        1 UNL1     -0.0208
     61 C         1.529487   5.652283   1.464705 C.2        1 UNL1     0.0882
     62 H         4.676736   2.762521   0.553988 H        1 UNL1     0.0365
     63 H         6.31114   3.652105   -0.287196 H        1 UNL1     0.0576
     64 H         8.324264   1.550154   -1.300068 H        1 UNL1     0.0615
     65 H         8.234364   4.667573   -1.477487 H        1 UNL1     0.0622
     66 H         -1.461512   5.316973   0.535845 H        1 UNL1     0.0645
     67 H         -1.884593   3.620067   -0.664871 H        1 UNL1     0.0362
     68 H         -2.546474   2.476472   1.087293 H        1 UNL1     0.0741
     69 H         -1.183603   0.503258   2.216628 H        1 UNL1     0.0359
     70 H         0.924543   0.720652   2.929348 H        1 UNL1     0.0600
     71 H         1.811884   -0.397845   1.296467 H        1 UNL1     0.0348
     72 H         3.357072   1.484751   1.28006 H        1 UNL1     0.0602
     73 H         0.722586   5.414746   -0.436322 H        1 UNL1     0.0628
     74 H         1.520974   5.438201   2.533974 H        1 UNL1     0.1022
     75 H         10.915944   2.338742   -3.501778 H        1 UNL1     0.0279
     76 H         10.740984   3.529495   -4.728479 H        1 UNL1     0.0279
     77 H         11.868096   3.75473   -3.330558 H        1 UNL1     0.0279
     78 H         8.997778   4.881641   -5.069718 H        1 UNL1     0.1553
     79 H         7.731793   3.40006   -4.711356 H        1 UNL1     0.1484
     80 H         3.985872   2.771789   -4.824724 H        1 UNL1     0.0317
     81 H         4.706777   4.305901   -5.290261 H        1 UNL1     0.0317
     82 H         6.619133   3.13293   -6.413086 H        1 UNL1     0.0428
     83 H         5.062074   2.648113   -7.047297 H        1 UNL1     0.0428
     84 H         6.879003   0.015031   -4.24216 H        1 UNL1     0.0428
     85 H         7.776165   1.433482   -4.657154 H        1 UNL1     0.0428
     86 H         6.498439   1.490142   -2.514946 H        1 UNL1     0.0317
     87 H         4.998637   1.255044   -3.288038 H        1 UNL1     0.0317
     88 H         7.204776   0.954295   -7.429059 H        1 UNL1     0.0429
     89 H         6.862751   -0.538422   -6.550966 H        1 UNL1     0.0429
     90 H         4.307822   0.236693   -7.326529 H        1 UNL1     0.0308
     91 H         6.201088   1.127477   -9.579906 H        1 UNL1     0.0233
     92 H         4.432239   0.958141   -9.714053 H        1 UNL1     0.0233
     93 H         5.124675   2.189365   -8.68002 H        1 UNL1     0.0233
     94 H         4.607192   -1.417674   -9.205096 H        1 UNL1     0.0233
     95 H         6.313838   -1.513251   -8.744062 H        1 UNL1     0.0233
     96 H         5.052604   -1.997276   -7.58691 H        1 UNL1     0.0233
     97 H         4.070888   10.549296   -0.087638 H        1 UNL1     0.0280
     98 H         5.670743   11.180939   -0.368134 H        1 UNL1     0.0280
     99 H         4.474903   11.171426   -1.6984 H        1 UNL1     0.0280
     100 H         6.593149   10.77523   -3.027464 H        1 UNL1     0.2922
     101 H         4.712396   0.90819   2.403607 H        1 UNL1     0.0236
     102 H         6.01619   2.157733   2.473067 H        1 UNL1     0.0236
     103 H         6.33103   0.554325   1.885312 H        1 UNL1     0.0236
     104 H         4.344668   -0.533735   1.242468 H        1 UNL1     0.2098
     105 H         0.694734   1.28886   -0.931114 H        1 UNL1     0.0234
     106 H         1.286631   -0.394113   -1.022525 H        1 UNL1     0.0234
     107 H         0.0   -0.0   0.0 H        1 UNL1     0.0234
     108 H         1.186296   3.263364   1.754719 H        1 UNL1     0.2098
     109 H         1.052228   3.051193   -0.848343 H        1 UNL1     0.0234
     110 H         -0.21027   2.34227   -1.904908 H        1 UNL1     0.0234
     111 H         0.039632   4.052534   -1.867617 H        1 UNL1     0.0234
     112 H         -3.549879   -1.559693   1.466915 H        1 UNL1     0.0342
     113 H         -3.180181   0.064491   2.147789 H        1 UNL1     0.0342
     114 H         -4.397021   -0.117191   0.881194 H        1 UNL1     0.0342
     115 H         -2.638913   1.901463   3.349077 H        1 UNL1     0.0234
     116 H         -1.116892   1.916941   4.245737 H        1 UNL1     0.0234
     117 H         -1.645415   3.27737   3.234033 H        1 UNL1     0.0234
     118 H         0.885275   7.691501   -0.75459 H        1 UNL1     0.0309
     119 H         2.146028   7.805155   -2.021731 H        1 UNL1     0.0309
     120 H         1.4015   6.278764   -1.599868 H        1 UNL1     0.0309
     121 H         -0.384644   6.280371   2.830181 H        1 UNL1     0.0524
     122 H         -2.117089   5.998957   2.615013 H        1 UNL1     0.0524
     123 H         -1.28007   5.304182   4.025838 H        1 UNL1     0.0524
@<TRIPOS>BOND
     1     1     2    1
     2     1    42    1
     3     2     3    2
     4     3     4    1
     5     4     5    2
     6     5     7    1
     7     6    75    1
     8     6    76    1
     9     6    77    1
    10     7     9   am
    11     9    10    1
    12    10    11    2
    13    10    43    1
    14    11    14    1
    15    11    15    1
    16    12    13   ar
    17    12    27   ar
    18    12    43    1
    19    13    14    1
    20    13    30   ar
    21    14    17    2
    22    15    16    1
    23    16    17    1
    24    16    18    1
    25    16    22    1
    26    18    19    1
    27    19    20    1
    28    20    21    1
    29    21    22    1
    30    23    24    1
    31    23    88    1
    32    23    89    1
    33    24    25    1
    34    24    26    1
    35    24    90    1
    36    25    91    1
    37    25    92    1
    38    25    93    1
    39    26    94    1
    40    26    95    1
    41    26    96    1
    42    27    28   ar
    43    28    29   ar
    44    29    30   ar
    45    29    31    1
    46    30    33    1
    47    31    32    1
    48    32    33    1
    49    32    35    1
    50    34    97    1
    51    34    98    1
    52    34    99    1
    53    35    61    1
    54    36    37    1
    55    36    60    1
    56    37    38    1
    57    38    39    1
    58    39    40    1
    59    40    41    1
    60    41    42    1
    61    45   100    1
    62    47   101    1
    63    47   102    1
    64    47   103    1
    65    48   104    1
    66    49   105    1
    67    49   106    1
    68    49   107    1
    69    50   108    1
    70    51    59    1
    71    52   109    1
    72    52   110    1
    73    52   111    1
    74    53    54    1
    75    54    55    2
    76    54    56    1
    77    56   112    1
    78    56   113    1
    79    56   114    1
    80    57   115    1
    81    57   116    1
    82    57   117    1
    83    58   118    1
    84    58   119    1
    85    58   120    1
    86    59   121    1
    87    59   122    1
    88    59   123    1
    89    60    61    2
    90     1    47    1
    91     1    62    1
    92     2    63    1
    93     3    64    1
    94     4    65    1
    95     5     6    1
    96     7     8    2
    97     9    78    1
    98    15    79    1
    99    18    80    1
   100    18    81    1
   101    19    82    1
   102    19    83    1
   103    20    23    1
   104    21    84    1
   105    21    85    1
   106    22    86    1
   107    22    87    1
   108    27    45    1
   109    28    34    1
   110    32    58    1
   111    33    46    2
   112    36    51    1
   113    36    66    1
   114    37    52    1
   115    37    67    1
   116    38    53    1
   117    38    68    1
   118    42    48    1
   119    42    72    1
   120    43    44    2
   121    60    73    1
   122    61    74    1
   123    39    69    1
   124    39    57    1
   125    40    70    1
   126    40    50    1
   127    41    71    1
   128    41    49    1
