@<TRIPOS>MOLECULE
*****
 123 128 0 0 0
SMALL
GASTEIGER

@<TRIPOS>ATOM
     1 C         4.00573   0.755351   -1.396317 C.3        1 UNL1     0.0009
     2 C         5.495356   1.22601   -0.398053 C.2        1 UNL1     -0.0787
     3 C         6.470054   2.213877   0.014414 C.2        1 UNL1     -0.0649
     4 C         7.677698   2.056314   1.190478 C.2        1 UNL1     -0.0542
     5 C         8.555571   2.756546   2.054244 C.2        1 UNL1     0.0115
     6 C         9.125317   4.160238   2.398281 C.3        1 UNL1     -0.0348
     7 C         9.212548   1.975883   3.293573 C.2        1 UNL1     0.2441
     8 O         10.36713   1.571603   3.28878 O.2        1 UNL1     -0.2702
     9 N         8.460802   2.016776   4.480736 N.am        1 UNL1     -0.2772
     10 C         7.559556   0.977575   4.514458 C.2        1 UNL1     0.1049
     11 C         6.424885   1.169933   3.866582 C.2        1 UNL1     0.0801
     12 C         7.370579   -1.495478   4.189445 C.ar        1 UNL1     0.0753
     13 C         6.26615   -1.218143   3.322306 C.ar        1 UNL1     0.0305
     14 C         5.676055   0.115897   3.237584 C.2        1 UNL1     0.0924
     15 N         5.906824   2.296265   3.347432 N.pl3        1 UNL1     -0.3170
     16 C         4.571602   2.000396   2.900333 C.3        1 UNL1     0.1275
     17 N         4.600752   0.527638   2.571913 N.2        1 UNL1     -0.2557
     18 C         3.648132   2.147245   4.105879 C.3        1 UNL1     0.0016
     19 C         3.821751   3.542514   4.684388 C.3        1 UNL1     0.0026
     20 N         3.497901   4.519671   3.654188 N.3        1 UNL1     -0.3018
     21 C         4.293164   4.417954   2.428798 C.3        1 UNL1     0.0026
     22 C         4.100287   3.010227   1.862233 C.3        1 UNL1     0.0016
     23 C         3.34091   5.861502   4.179055 C.3        1 UNL1     0.0012
     24 C         2.889051   5.816127   5.647225 C.3        1 UNL1     -0.0339
     25 C         4.078703   5.591721   6.595079 C.3        1 UNL1     -0.0615
     26 C         2.126844   7.08244   5.9969 C.3        1 UNL1     -0.0615
     27 C         7.84963   -2.792778   4.355701 C.ar        1 UNL1     0.1347
     28 C         7.282641   -3.894934   3.741027 C.ar        1 UNL1     0.0342
     29 C         6.227795   -3.591749   2.854155 C.ar        1 UNL1     0.1435
     30 C         5.760695   -2.292786   2.649868 C.ar        1 UNL1     0.0774
     31 O         5.501441   -4.565843   2.263768 O.3        1 UNL1     -0.4436
     32 C         4.288399   -3.916256   1.854573 C.3        1 UNL1     0.3143
     33 C         4.644387   -2.447748   1.740687 C.2        1 UNL1     0.2504
     34 C         7.577786   -5.333346   4.063457 C.3        1 UNL1     -0.0327
     35 O         3.984493   -4.375663   0.531759 O.2        1 UNL1     -0.4528
     36 C         0.201704   -4.268881   0.23648 C.3        1 UNL1     0.0854
     37 C         -0.778837   -3.04905   0.431606 C.3        1 UNL1     0.0236
     38 C         -1.749967   -2.757101   -0.810737 C.3        1 UNL1     0.1131
     39 C         -1.145176   -2.628382   -2.266735 C.3        1 UNL1     0.0200
     40 C         0.253821   -1.757905   -2.526575 C.3        1 UNL1     0.0661
     41 C         0.562235   -0.184289   -1.973203 C.3        1 UNL1     0.0091
     42 C         2.134956   0.611383   -1.464421 C.3        1 UNL1     0.0661
     43 C         7.93191   -0.368424   4.974886 C.2        1 UNL1     0.2131
     44 O         8.574001   -0.51569   5.99898 O.2        1 UNL1     -0.2851
     45 O         8.95708   -2.97051   5.182384 O.3        1 UNL1     -0.5056
     46 O         4.135622   -1.601169   1.040462 O.2        1 UNL1     -0.2836
     47 C         4.389034   0.58925   -2.891466 C.3        1 UNL1     -0.0566
     48 O         1.904322   1.83953   -2.262908 O.3        1 UNL1     -0.3909
     49 C         -0.472839   0.178414   -0.931779 C.3        1 UNL1     -0.0577
     50 O         1.393449   -2.570809   -2.331233 O.3        1 UNL1     -0.3910
     51 O         0.229027   -4.83711   -1.053404 O.3        1 UNL1     -0.3753
     52 C         -0.118337   -1.898154   1.258727 C.3        1 UNL1     -0.0564
     53 O         -2.891773   -1.841631   -0.478293 O.3        1 UNL1     -0.4608
     54 C         -4.163927   -1.943562   -0.977457 C.2        1 UNL1     0.3042
     55 O         -5.217548   -1.946327   -0.342072 O.2        1 UNL1     -0.2512
     56 C         -4.218615   -1.999707   -2.477647 C.3        1 UNL1     0.0332
     57 C         -1.274723   -4.058578   -2.970957 C.3        1 UNL1     -0.0567
     58 C         3.282397   -4.097165   3.015073 C.3        1 UNL1     0.0210
     59 C         -0.474757   -4.096707   -2.049576 C.3        1 UNL1     0.0372
     60 C         1.615665   -4.006715   0.620071 C.2        1 UNL1     -0.0208
     61 C         2.752301   -4.310404   -0.008084 C.2        1 UNL1     0.0882
     62 H         4.046462   -0.245469   -0.949763 H        1 UNL1     0.0365
     63 H         5.754465   0.263218   0.047328 H        1 UNL1     0.0576
     64 H         6.399775   3.25582   -0.305781 H        1 UNL1     0.0615
     65 H         7.718963   0.980113   1.379081 H        1 UNL1     0.0622
     66 H         -0.1642   -5.032056   0.937711 H        1 UNL1     0.0645
     67 H         -1.496359   -3.401   1.193086 H        1 UNL1     0.0362
     68 H         -2.327844   -3.693875   -0.816599 H        1 UNL1     0.0741
     69 H         -1.861747   -2.119395   -2.897501 H        1 UNL1     0.0359
     70 H         0.194207   -1.624184   -3.623674 H        1 UNL1     0.0600
     71 H         0.20731   0.400097   -2.844683 H        1 UNL1     0.0348
     72 H         2.418808   -0.262509   -2.06862 H        1 UNL1     0.0602
     73 H         1.642919   -3.613292   1.605831 H        1 UNL1     0.0628
     74 H         2.812382   -4.662211   -1.038549 H        1 UNL1     0.1022
     75 H         9.130158   4.814011   1.492968 H        1 UNL1     0.0279
     76 H         8.557383   4.752718   3.112064 H        1 UNL1     0.0279
     77 H         10.195034   4.134336   2.652715 H        1 UNL1     0.0279
     78 H         7.929696   2.884242   4.519565 H        1 UNL1     0.1553
     79 H         6.198978   3.218367   3.614466 H        1 UNL1     0.1484
     80 H         2.613535   1.971672   3.787212 H        1 UNL1     0.0317
     81 H         3.874314   1.392117   4.866322 H        1 UNL1     0.0317
     82 H         4.839117   3.698723   5.072302 H        1 UNL1     0.0428
     83 H         3.155672   3.625111   5.543788 H        1 UNL1     0.0428
     84 H         3.976972   5.109877   1.641984 H        1 UNL1     0.0428
     85 H         5.347051   4.675505   2.602882 H        1 UNL1     0.0428
     86 H         4.585348   3.014896   0.903754 H        1 UNL1     0.0317
     87 H         3.04474   2.84851   1.611705 H        1 UNL1     0.0317
     88 H         4.315661   6.36412   4.128761 H        1 UNL1     0.0429
     89 H         2.643917   6.449601   3.568224 H        1 UNL1     0.0429
     90 H         2.177554   4.992305   5.778763 H        1 UNL1     0.0308
     91 H         4.937295   6.206186   6.308105 H        1 UNL1     0.0233
     92 H         3.800401   5.823402   7.625846 H        1 UNL1     0.0233
     93 H         4.420008   4.549445   6.59739 H        1 UNL1     0.0233
     94 H         2.724981   7.710811   6.665645 H        1 UNL1     0.0233
     95 H         1.920468   7.656918   5.089516 H        1 UNL1     0.0233
     96 H         1.179466   6.85381   6.493055 H        1 UNL1     0.0233
     97 H         6.855337   -5.751778   4.757872 H        1 UNL1     0.0280
     98 H         7.542891   -5.972891   3.171818 H        1 UNL1     0.0280
     99 H         8.579141   -5.411793   4.517584 H        1 UNL1     0.0280
     100 H         9.667026   -2.374683   5.019321 H        1 UNL1     0.2922
     101 H         5.212593   -0.118525   -2.98345 H        1 UNL1     0.0236
     102 H         4.605791   1.535482   -3.386081 H        1 UNL1     0.0236
     103 H         3.570587   0.144557   -3.481877 H        1 UNL1     0.0236
     104 H         0.954757   1.868444   -2.491949 H        1 UNL1     0.2098
     105 H         -0.785087   1.219512   -0.95248 H        1 UNL1     0.0234
     106 H         -1.343554   -0.476721   -0.907691 H        1 UNL1     0.0234
     107 H         0.0   0.0   0.0 H        1 UNL1     0.0234
     108 H         2.156976   -2.096594   -2.713221 H        1 UNL1     0.2098
     109 H         -0.839374   -1.11468   1.530731 H        1 UNL1     0.0234
     110 H         0.393006   -2.254261   2.159537 H        1 UNL1     0.0234
     111 H         0.670643   -1.390748   0.687767 H        1 UNL1     0.0234
     112 H         -5.259871   -1.976733   -2.813213 H        1 UNL1     0.0342
     113 H         -3.64178   -1.199387   -2.938726 H        1 UNL1     0.0342
     114 H         -3.781421   -2.954271   -2.801424 H        1 UNL1     0.0342
     115 H         -1.820942   -3.997383   -3.922319 H        1 UNL1     0.0234
     116 H         -0.317014   -4.54245   -3.172726 H        1 UNL1     0.0234
     117 H         -1.904127   -4.770114   -2.409256 H        1 UNL1     0.0234
     118 H         2.281121   -4.390395   2.653869 H        1 UNL1     0.0309
     119 H         3.618009   -4.819531   3.765909 H        1 UNL1     0.0309
     120 H         3.092373   -3.16369   3.556018 H        1 UNL1     0.0309
     121 H         0.125229   -3.220734   -2.294617 H        1 UNL1     0.0524
     122 H         -0.614709   -4.673738   -2.978815 H        1 UNL1     0.0524
     123 H         -1.447415   -3.791721   -1.674059 H        1 UNL1     0.0524
@<TRIPOS>BOND
     1     1     2    1
     2     1    42    1
     3     2     3    2
     4     3     4    1
     5     4     5    2
     6     5     7    1
     7     6    75    1
     8     6    76    1
     9     6    77    1
    10     7     9   am
    11     9    10    1
    12    10    11    2
    13    10    43    1
    14    11    14    1
    15    11    15    1
    16    12    13   ar
    17    12    27   ar
    18    12    43    1
    19    13    14    1
    20    13    30   ar
    21    14    17    2
    22    15    16    1
    23    16    17    1
    24    16    18    1
    25    16    22    1
    26    18    19    1
    27    19    20    1
    28    20    21    1
    29    21    22    1
    30    23    24    1
    31    23    88    1
    32    23    89    1
    33    24    25    1
    34    24    26    1
    35    24    90    1
    36    25    91    1
    37    25    92    1
    38    25    93    1
    39    26    94    1
    40    26    95    1
    41    26    96    1
    42    27    28   ar
    43    28    29   ar
    44    29    30   ar
    45    29    31    1
    46    30    33    1
    47    31    32    1
    48    32    33    1
    49    32    35    1
    50    34    97    1
    51    34    98    1
    52    34    99    1
    53    35    61    1
    54    36    37    1
    55    36    60    1
    56    37    38    1
    57    38    39    1
    58    39    40    1
    59    40    41    1
    60    41    42    1
    61    45   100    1
    62    47   101    1
    63    47   102    1
    64    47   103    1
    65    48   104    1
    66    49   105    1
    67    49   106    1
    68    49   107    1
    69    50   108    1
    70    51    59    1
    71    52   109    1
    72    52   110    1
    73    52   111    1
    74    53    54    1
    75    54    55    2
    76    54    56    1
    77    56   112    1
    78    56   113    1
    79    56   114    1
    80    57   115    1
    81    57   116    1
    82    57   117    1
    83    58   118    1
    84    58   119    1
    85    58   120    1
    86    59   121    1
    87    59   122    1
    88    59   123    1
    89    60    61    2
    90     1    47    1
    91     1    62    1
    92     2    63    1
    93     3    64    1
    94     4    65    1
    95     5     6    1
    96     7     8    2
    97     9    78    1
    98    15    79    1
    99    18    80    1
   100    18    81    1
   101    19    82    1
   102    19    83    1
   103    20    23    1
   104    21    84    1
   105    21    85    1
   106    22    86    1
   107    22    87    1
   108    27    45    1
   109    28    34    1
   110    32    58    1
   111    33    46    2
   112    36    51    1
   113    36    66    1
   114    37    52    1
   115    37    67    1
   116    38    53    1
   117    38    68    1
   118    42    48    1
   119    42    72    1
   120    43    44    2
   121    60    73    1
   122    61    74    1
   123    39    69    1
   124    39    57    1
   125    40    70    1
   126    40    50    1
   127    41    71    1
   128    41    49    1
