@<TRIPOS>MOLECULE
*****
 123 128 0 0 0
SMALL
GASTEIGER

@<TRIPOS>ATOM
     1 C         0.318471   3.827759   1.551873 C.3        1 UNL1     0.0009
     2 C         0.346693   5.42415   0.609655 C.2        1 UNL1     -0.0787
     3 C         1.083417   6.525486   0.026266 C.2        1 UNL1     -0.0649
     4 C         0.484584   7.786684   -0.931406 C.2        1 UNL1     -0.0542
     5 C         0.821816   8.791855   -1.871078 C.2        1 UNL1     0.0115
     6 C         2.008012   9.531661   -2.548536 C.3        1 UNL1     -0.0348
     7 C         -0.342956   9.444095   -2.762637 C.2        1 UNL1     0.2441
     8 O         -0.821855   10.545369   -2.529448 O.2        1 UNL1     -0.2702
     9 N         -0.593879   8.784049   -3.978174 N.am        1 UNL1     -0.2772
     10 C         -1.517877   7.780535   -3.797865 C.2        1 UNL1     0.1049
     11 C         -1.048658   6.631568   -3.34628 C.2        1 UNL1     0.0801
     12 C         -3.758657   7.304504   -2.79306 C.ar        1 UNL1     0.0753
     13 C         -3.14606   6.179696   -2.154201 C.ar        1 UNL1     0.0305
     14 C         -1.802828   5.732326   -2.515638 C.2        1 UNL1     0.0924
     15 N         0.219852   6.203573   -3.226988 N.pl3        1 UNL1     -0.3170
     16 C         0.181642   4.816828   -2.845235 C.3        1 UNL1     0.1275
     17 N         -1.124531   4.664654   -2.104642 N.2        1 UNL1     -0.2557
     18 C         0.040306   3.999132   -4.125508 C.3        1 UNL1     0.0016
     19 C         1.18177   4.361167   -5.0623 C.3        1 UNL1     0.0026
     20 N         2.443846   4.074793   -4.39433 N.3        1 UNL1     -0.3018
     21 C         2.644634   4.768836   -3.120612 C.3        1 UNL1     0.0026
     22 C         1.489369   4.387174   -2.193471 C.3        1 UNL1     0.0016
     23 C         3.577782   4.099497   -5.296673 C.3        1 UNL1     0.0012
     24 C         3.886466   2.685188   -5.812619 C.3        1 UNL1     -0.0339
     25 C         5.071926   2.690051   -6.79176 C.3        1 UNL1     -0.0615
     26 C         4.13051   1.746258   -4.644016 C.3        1 UNL1     -0.0615
     27 C         -5.081918   7.65127   -2.530659 C.ar        1 UNL1     0.1347
     28 C         -5.901188   6.928177   -1.682141 C.ar        1 UNL1     0.0342
     29 C         -5.262254   5.853983   -1.027135 C.ar        1 UNL1     0.1435
     30 C         -3.927121   5.516651   -1.252631 C.ar        1 UNL1     0.0774
     31 O         -5.953683   4.988282   -0.254157 O.3        1 UNL1     -0.4436
     32 C         -5.113761   3.82715   -0.169451 C.3        1 UNL1     0.3143
     33 C         -3.712355   4.330622   -0.450148 C.2        1 UNL1     0.2504
     34 C         -7.389783   7.088016   -1.545625 C.3        1 UNL1     -0.0327
     35 O         -5.133282   3.385817   1.193669 O.2        1 UNL1     -0.4528
     36 C         -4.630592   -0.374747   1.077251 C.3        1 UNL1     0.0854
     37 C         -3.446664   -1.202544   0.444331 C.3        1 UNL1     0.0236
     38 C         -2.71992   -2.219218   1.4493 C.3        1 UNL1     0.1131
     39 C         -2.215709   -1.705034   2.857723 C.3        1 UNL1     0.0200
     40 C         -1.426418   -0.241468   2.98976 C.3        1 UNL1     0.0661
     41 C         -0.118989   0.271753   2.038526 C.3        1 UNL1     0.0091
     42 C         0.35675   1.952108   1.476847 C.3        1 UNL1     0.0661
     43 C         -2.965882   8.036339   -3.811974 C.2        1 UNL1     0.2131
     44 O         -3.462969   8.727327   -4.682708 O.2        1 UNL1     -0.2851
     45 O         -5.588003   8.787037   -3.159426 O.3        1 UNL1     -0.5056
     46 O         -2.657061   3.869335   -0.076755 O.2        1 UNL1     -0.2836
     47 C         0.572161   4.087833   3.061173 C.3        1 UNL1     -0.0566
     48 O         1.781159   1.801063   1.860721 O.3        1 UNL1     -0.3909
     49 C         0.002966   -0.644604   0.841485 C.3        1 UNL1     -0.0577
     50 O         -2.352202   0.814641   3.148759 O.3        1 UNL1     -0.3910
     51 O         -4.790865   -0.497028   2.472525 O.3        1 UNL1     -0.3753
     52 C         -2.651789   -0.366934   -0.611547 C.3        1 UNL1     -0.0564
     53 O         -1.852925   -3.23036   0.757754 O.3        1 UNL1     -0.4608
     54 C         -0.990278   -4.095432   1.378577 C.2        1 UNL1     0.3042
     55 O         -0.498008   -5.122189   0.912446 O.2        1 UNL1     -0.2512
     56 C         -0.593805   -3.660775   2.76082 C.3        1 UNL1     0.0332
     57 C         -3.356768   -2.035714   3.928615 C.3        1 UNL1     -0.0567
     58 C         -5.546724   2.889211   -1.320252 C.3        1 UNL1     0.0210
     59 C         -5.616494   -1.584021   2.888037 C.3        1 UNL1     0.0372
     60 C         -4.612137   1.082122   0.773354 C.2        1 UNL1     -0.0208
     61 C         -4.808946   2.133818   1.56956 C.2        1 UNL1     0.0882
     62 H         -0.769534   3.790882   1.419225 H        1 UNL1     0.0365
     63 H         -0.722883   5.607881   0.48833 H        1 UNL1     0.0576
     64 H         2.175514   6.546125   0.023821 H        1 UNL1     0.0615
     65 H         -0.59867   7.724584   -0.796544 H        1 UNL1     0.0622
     66 H         -5.534343   -0.77193   0.594004 H        1 UNL1     0.0645
     67 H         -3.947907   -1.90006   -0.249057 H        1 UNL1     0.0362
     68 H         -3.561529   -2.893677   1.669122 H        1 UNL1     0.0741
     69 H         -1.484978   -2.404044   3.242204 H        1 UNL1     0.0359
     70 H         -0.968838   -0.361187   3.990434 H        1 UNL1     0.0600
     71 H         0.724903   -0.076899   2.665619 H        1 UNL1     0.0348
     72 H         -0.318976   2.098209   2.332045 H        1 UNL1     0.0602
     73 H         -4.532488   1.218915   -0.2765 H        1 UNL1     0.0628
     74 H         -4.84298   2.085074   2.65846 H        1 UNL1     0.1022
     75 H         1.890997   9.525511   -3.659078 H        1 UNL1     0.0279
     76 H         2.107013   10.592413   -2.329282 H        1 UNL1     0.0279
     77 H         2.964191   9.001587   -2.428351 H        1 UNL1     0.0279
     78 H         0.263922   8.353374   -4.316957 H        1 UNL1     0.1553
     79 H         0.993713   6.610917   -3.719067 H        1 UNL1     0.1484
     80 H         0.053534   2.932293   -3.871646 H        1 UNL1     0.0317
     81 H         -0.922425   4.19411   -4.610054 H        1 UNL1     0.0317
     82 H         1.131007   5.413563   -5.378207 H        1 UNL1     0.0428
     83 H         1.060645   3.768175   -5.96935 H        1 UNL1     0.0428
     84 H         3.562513   4.475971   -2.601439 H        1 UNL1     0.0428
     85 H         2.750685   5.853754   -3.258534 H        1 UNL1     0.0428
     86 H         1.73791   4.803254   -1.234778 H        1 UNL1     0.0317
     87 H         1.497306   3.305707   -2.010544 H        1 UNL1     0.0317
     88 H         3.318712   4.735252   -6.153406 H        1 UNL1     0.0429
     89 H         4.45831   4.547474   -4.818382 H        1 UNL1     0.0429
     90 H         3.005081   2.292492   -6.333354 H        1 UNL1     0.0308
     91 H         5.069665   1.796733   -7.423488 H        1 UNL1     0.0233
     92 H         5.044682   3.578547   -7.42693 H        1 UNL1     0.0233
     93 H         6.039536   2.712463   -6.275946 H        1 UNL1     0.0233
     94 H         4.344403   0.736044   -5.009466 H        1 UNL1     0.0233
     95 H         4.994682   2.085711   -4.06614 H        1 UNL1     0.0233
     96 H         3.260774   1.69762   -3.982834 H        1 UNL1     0.0233
     97 H         -7.823734   6.328904   -0.901678 H        1 UNL1     0.0280
     98 H         -7.663159   8.052976   -1.099111 H        1 UNL1     0.0280
     99 H         -7.861943   7.009902   -2.53863 H        1 UNL1     0.0280
     100 H         -4.951395   9.460585   -3.322783 H        1 UNL1     0.2922
     101 H         0.62882   5.160523   3.244975 H        1 UNL1     0.0236
     102 H         1.444077   3.56026   3.446417 H        1 UNL1     0.0236
     103 H         -0.266108   3.740401   3.687902 H        1 UNL1     0.0236
     104 H         2.323152   2.15098   1.12671 H        1 UNL1     0.2098
     105 H         0.921368   -1.225552   0.812338 H        1 UNL1     0.0234
     106 H         -0.858364   -1.290896   0.673128 H        1 UNL1     0.0234
     107 H         0.0   0.0   -0.0 H        1 UNL1     0.0234
     108 H         -1.845371   1.649319   3.134501 H        1 UNL1     0.2098
     109 H         -2.068751   -1.003068   -1.292071 H        1 UNL1     0.0234
     110 H         -3.288485   0.306758   -1.195071 H        1 UNL1     0.0234
     111 H         -1.923992   0.302176   -0.133477 H        1 UNL1     0.0234
     112 H         -0.387854   -4.537752   3.381983 H        1 UNL1     0.0342
     113 H         0.257782   -2.982184   2.748262 H        1 UNL1     0.0342
     114 H         -1.441342   -3.123069   3.207717 H        1 UNL1     0.0342
     115 H         -3.332473   -3.089368   4.239114 H        1 UNL1     0.0234
     116 H         -3.307256   -1.425724   4.832778 H        1 UNL1     0.0234
     117 H         -4.379136   -1.957348   3.52049 H        1 UNL1     0.0234
     118 H         -5.555735   1.829549   -1.010344 H        1 UNL1     0.0309
     119 H         -6.523762   3.14772   -1.740694 H        1 UNL1     0.0309
     120 H         -4.842743   2.90092   -2.159526 H        1 UNL1     0.0309
     121 H         -6.591613   -1.175362   3.151659 H        1 UNL1     0.0524
     122 H         -5.772333   -2.322244   2.083812 H        1 UNL1     0.0524
     123 H         -5.175578   -2.084515   3.745471 H        1 UNL1     0.0524
@<TRIPOS>BOND
     1     1     2    1
     2     1    42    1
     3     2     3    2
     4     3     4    1
     5     4     5    2
     6     5     7    1
     7     6    75    1
     8     6    76    1
     9     6    77    1
    10     7     9   am
    11     9    10    1
    12    10    11    2
    13    10    43    1
    14    11    14    1
    15    11    15    1
    16    12    13   ar
    17    12    27   ar
    18    12    43    1
    19    13    14    1
    20    13    30   ar
    21    14    17    2
    22    15    16    1
    23    16    17    1
    24    16    18    1
    25    16    22    1
    26    18    19    1
    27    19    20    1
    28    20    21    1
    29    21    22    1
    30    23    24    1
    31    23    88    1
    32    23    89    1
    33    24    25    1
    34    24    26    1
    35    24    90    1
    36    25    91    1
    37    25    92    1
    38    25    93    1
    39    26    94    1
    40    26    95    1
    41    26    96    1
    42    27    28   ar
    43    28    29   ar
    44    29    30   ar
    45    29    31    1
    46    30    33    1
    47    31    32    1
    48    32    33    1
    49    32    35    1
    50    34    97    1
    51    34    98    1
    52    34    99    1
    53    35    61    1
    54    36    37    1
    55    36    60    1
    56    37    38    1
    57    38    39    1
    58    39    40    1
    59    40    41    1
    60    41    42    1
    61    45   100    1
    62    47   101    1
    63    47   102    1
    64    47   103    1
    65    48   104    1
    66    49   105    1
    67    49   106    1
    68    49   107    1
    69    50   108    1
    70    51    59    1
    71    52   109    1
    72    52   110    1
    73    52   111    1
    74    53    54    1
    75    54    55    2
    76    54    56    1
    77    56   112    1
    78    56   113    1
    79    56   114    1
    80    57   115    1
    81    57   116    1
    82    57   117    1
    83    58   118    1
    84    58   119    1
    85    58   120    1
    86    59   121    1
    87    59   122    1
    88    59   123    1
    89    60    61    2
    90     1    47    1
    91     1    62    1
    92     2    63    1
    93     3    64    1
    94     4    65    1
    95     5     6    1
    96     7     8    2
    97     9    78    1
    98    15    79    1
    99    18    80    1
   100    18    81    1
   101    19    82    1
   102    19    83    1
   103    20    23    1
   104    21    84    1
   105    21    85    1
   106    22    86    1
   107    22    87    1
   108    27    45    1
   109    28    34    1
   110    32    58    1
   111    33    46    2
   112    36    51    1
   113    36    66    1
   114    37    52    1
   115    37    67    1
   116    38    53    1
   117    38    68    1
   118    42    48    1
   119    42    72    1
   120    43    44    2
   121    60    73    1
   122    61    74    1
   123    39    69    1
   124    39    57    1
   125    40    70    1
   126    40    50    1
   127    41    71    1
   128    41    49    1
