@<TRIPOS>MOLECULE
*****
 123 128 0 0 0
SMALL
GASTEIGER

@<TRIPOS>ATOM
     1 C         1.460634   2.763127   4.497918 C.3        1 UNL1     0.0009
     2 C         1.883146   4.420313   5.213637 C.2        1 UNL1     -0.0787
     3 C         2.869559   5.378367   5.666594 C.2        1 UNL1     -0.0649
     4 C         2.614525   6.972849   6.175457 C.2        1 UNL1     -0.0542
     5 C         3.221407   8.235606   6.385737 C.2        1 UNL1     0.0115
     6 C         4.582946   8.981354   6.443999 C.3        1 UNL1     -0.0348
     7 C         2.287447   9.53529   6.510355 C.2        1 UNL1     0.2441
     8 O         2.018636   10.061298   7.581607 O.2        1 UNL1     -0.2702
     9 N         2.01281   10.182142   5.292854 N.am        1 UNL1     -0.2772
     10 C         0.896474   9.63749   4.700848 C.2        1 UNL1     0.1049
     11 C         1.089334   8.536658   3.997146 C.2        1 UNL1     0.0801
     12 C         -1.46996   8.972497   5.164645 C.ar        1 UNL1     0.0753
     13 C         -1.147889   7.708758   4.574863 C.ar        1 UNL1     0.0305
     14 C         0.105348   7.498115   3.853698 C.2        1 UNL1     0.0924
     15 N         2.23339   7.964957   3.58384 N.pl3        1 UNL1     -0.3170
     16 C         1.889372   6.878389   2.705616 C.3        1 UNL1     0.1275
     17 N         0.521892   6.437602   3.1676 N.2        1 UNL1     -0.2557
     18 C         1.695898   7.467567   1.311651 C.3        1 UNL1     0.0016
     19 C         2.960468   8.215191   0.919847 C.3        1 UNL1     0.0026
     20 N         4.080607   7.28476   0.944587 N.3        1 UNL1     -0.3018
     21 C         4.308176   6.619725   2.229231 C.3        1 UNL1     0.0026
     22 C         3.027041   5.871239   2.601193 C.3        1 UNL1     0.0016
     23 C         5.268085   7.814623   0.304442 C.3        1 UNL1     0.0012
     24 C         5.067396   7.899809   -1.216815 C.3        1 UNL1     -0.0339
     25 C         4.606227   9.302512   -1.645538 C.3        1 UNL1     -0.0615
     26 C         6.340795   7.486515   -1.934049 C.3        1 UNL1     -0.0615
     27 C         -2.715385   9.201834   5.744678 C.ar        1 UNL1     0.1347
     28 C         -3.729519   8.260902   5.759817 C.ar        1 UNL1     0.0342
     29 C         -3.373038   7.0081   5.217072 C.ar        1 UNL1     0.1435
     30 C         -2.117222   6.75232   4.665053 C.ar        1 UNL1     0.0774
     31 O         -4.284297   6.023349   5.059342 O.3        1 UNL1     -0.4436
     32 C         -3.701255   5.141938   4.08772 C.3        1 UNL1     0.3143
     33 C         -2.209442   5.395595   4.1675 C.2        1 UNL1     0.2504
     34 C         -5.16298   8.515515   6.1346 C.3        1 UNL1     -0.0327
     35 O         -3.92136   3.801091   4.542621 O.2        1 UNL1     -0.4528
     36 C         -4.166205   1.667368   1.412866 C.3        1 UNL1     0.0854
     37 C         -3.121344   1.487888   0.245144 C.3        1 UNL1     0.0236
     38 C         -2.696858   -0.029232   -0.054692 C.3        1 UNL1     0.1131
     39 C         -2.21984   -0.960203   1.131907 C.3        1 UNL1     0.0200
     40 C         -1.169882   -0.380298   2.291103 C.3        1 UNL1     0.0661
     41 C         0.287943   0.434257   1.993015 C.3        1 UNL1     0.0091
     42 C         1.132449   1.751527   2.950623 C.3        1 UNL1     0.0661
     43 C         -0.465775   10.060001   5.05878 C.2        1 UNL1     0.2131
     44 O         -0.74172   11.242328   5.152021 O.2        1 UNL1     -0.2851
     45 O         -2.932105   10.444132   6.337272 O.3        1 UNL1     -0.5056
     46 O         -1.301381   4.640245   3.901556 O.2        1 UNL1     -0.2836
     47 C         1.634214   1.652966   5.569083 C.3        1 UNL1     -0.0566
     48 O         2.461618   1.096086   2.897498 O.3        1 UNL1     -0.3909
     49 C         0.325111   0.852273   0.539957 C.3        1 UNL1     -0.0577
     50 O         -1.877898   0.261693   3.332393 O.3        1 UNL1     -0.3910
     51 O         -4.463202   0.507692   2.15743 O.3        1 UNL1     -0.3753
     52 C         -2.091457   2.663581   0.200125 C.3        1 UNL1     -0.0564
     53 O         -1.992978   -0.207532   -1.368118 O.3        1 UNL1     -0.4608
     54 C         -1.193185   -1.268396   -1.704021 C.2        1 UNL1     0.3042
     55 O         0.024122   -1.258866   -1.882658 O.2        1 UNL1     -0.2512
     56 C         -1.932118   -2.573057   -1.796493 C.3        1 UNL1     0.0332
     57 C         -3.48897   -1.797716   1.627948 C.3        1 UNL1     -0.0567
     58 C         -4.214155   5.612523   2.706774 C.3        1 UNL1     0.0210
     59 C         -5.770088   0.480999   2.729445 C.3        1 UNL1     0.0372
     60 C         -3.834064   2.734895   2.395327 C.2        1 UNL1     -0.0208
     61 C         -3.884114   2.729126   3.728071 C.2        1 UNL1     0.0882
     62 H         0.401819   3.04849   4.511711 H        1 UNL1     0.0365
     63 H         0.885118   4.818439   5.408332 H        1 UNL1     0.0576
     64 H         3.940404   5.191446   5.559554 H        1 UNL1     0.0615
     65 H         1.533065   7.028344   6.326614 H        1 UNL1     0.0622
     66 H         -5.087294   1.995699   0.911029 H        1 UNL1     0.0645
     67 H         -3.691372   1.740428   -0.665818 H        1 UNL1     0.0362
     68 H         -3.670793   -0.433929   -0.369641 H        1 UNL1     0.0741
     69 H         -1.676799   -1.799785   0.71885 H        1 UNL1     0.0359
     70 H         -0.830098   -1.335343   2.735507 H        1 UNL1     0.0600
     71 H         0.990741   -0.421913   1.990591 H        1 UNL1     0.0348
     72 H         0.43025   1.272294   3.648167 H        1 UNL1     0.0602
     73 H         -3.641703   3.64042   1.875453 H        1 UNL1     0.0628
     74 H         -4.017725   1.833871   4.336268 H        1 UNL1     0.1022
     75 H         5.42504   8.276319   6.241914 H        1 UNL1     0.0279
     76 H         4.743273   9.757439   5.698978 H        1 UNL1     0.0279
     77 H         4.832435   9.332675   7.455942 H        1 UNL1     0.0279
     78 H         2.793393   10.051964   4.652682 H        1 UNL1     0.1553
     79 H         3.110891   8.448946   3.532078 H        1 UNL1     0.1484
     80 H         1.476184   6.655787   0.60773 H        1 UNL1     0.0317
     81 H         0.834704   8.143935   1.28879 H        1 UNL1     0.0317
     82 H         3.145829   9.075458   1.579768 H        1 UNL1     0.0428
     83 H         2.800185   8.628709   -0.076327 H        1 UNL1     0.0428
     84 H         5.103278   5.86824   2.19935 H        1 UNL1     0.0428
     85 H         4.638304   7.326817   3.002763 H        1 UNL1     0.0428
     86 H         3.272387   5.292443   3.472278 H        1 UNL1     0.0317
     87 H         2.80517   5.109052   1.844265 H        1 UNL1     0.0317
     88 H         5.441629   8.827296   0.691315 H        1 UNL1     0.0429
     89 H         6.155314   7.218556   0.554047 H        1 UNL1     0.0429
     90 H         4.303866   7.173485   -1.519615 H        1 UNL1     0.0308
     91 H         5.322931   10.068871   -1.335487 H        1 UNL1     0.0233
     92 H         4.474949   9.35162   -2.729034 H        1 UNL1     0.0233
     93 H         3.638648   9.576031   -1.207573 H        1 UNL1     0.0233
     94 H         6.268001   7.725168   -3.000624 H        1 UNL1     0.0233
     95 H         7.194772   8.032817   -1.523878 H        1 UNL1     0.0233
     96 H         6.52606   6.413572   -1.831874 H        1 UNL1     0.0233
     97 H         -5.775652   7.624973   6.03068 H        1 UNL1     0.0280
     98 H         -5.267317   8.831682   7.180739 H        1 UNL1     0.0280
     99 H         -5.580914   9.300433   5.483194 H        1 UNL1     0.0280
     100 H         -3.694048   10.899468   6.024646 H        1 UNL1     0.2922
     101 H         1.344254   0.689501   5.150377 H        1 UNL1     0.0236
     102 H         1.109865   1.869125   6.499307 H        1 UNL1     0.0236
     103 H         2.688847   1.523756   5.864459 H        1 UNL1     0.0236
     104 H         2.565576   0.573187   3.716485 H        1 UNL1     0.2098
     105 H         -0.339396   1.676308   0.292556 H        1 UNL1     0.0234
     106 H         1.323608   1.040733   0.145734 H        1 UNL1     0.0234
     107 H         0.0   0.0   -0.0 H        1 UNL1     0.0234
     108 H         -2.318242   1.042701   2.945235 H        1 UNL1     0.2098
     109 H         -1.516211   2.748616   1.132635 H        1 UNL1     0.0234
     110 H         -1.403832   2.601086   -0.650175 H        1 UNL1     0.0234
     111 H         -2.589755   3.633322   0.068796 H        1 UNL1     0.0234
     112 H         -1.238028   -3.375773   -2.063387 H        1 UNL1     0.0342
     113 H         -2.465648   -2.807636   -0.876622 H        1 UNL1     0.0342
     114 H         -2.676004   -2.489784   -2.600771 H        1 UNL1     0.0342
     115 H         -3.901912   -2.426298   0.826979 H        1 UNL1     0.0234
     116 H         -3.286503   -2.446039   2.482777 H        1 UNL1     0.0234
     117 H         -4.361198   -1.168908   1.876464 H        1 UNL1     0.0234
     118 H         -5.21692   5.211046   2.478114 H        1 UNL1     0.0309
     119 H         -4.232589   6.702138   2.603808 H        1 UNL1     0.0309
     120 H         -3.598623   5.240236   1.88056 H        1 UNL1     0.0309
     121 H         -5.84267   1.316639   3.424998 H        1 UNL1     0.0524
     122 H         -6.561041   0.609932   1.971944 H        1 UNL1     0.0524
     123 H         -5.932351   -0.457203   3.252457 H        1 UNL1     0.0524
@<TRIPOS>BOND
     1     1     2    1
     2     1    42    1
     3     2     3    2
     4     3     4    1
     5     4     5    2
     6     5     7    1
     7     6    75    1
     8     6    76    1
     9     6    77    1
    10     7     9   am
    11     9    10    1
    12    10    11    2
    13    10    43    1
    14    11    14    1
    15    11    15    1
    16    12    13   ar
    17    12    27   ar
    18    12    43    1
    19    13    14    1
    20    13    30   ar
    21    14    17    2
    22    15    16    1
    23    16    17    1
    24    16    18    1
    25    16    22    1
    26    18    19    1
    27    19    20    1
    28    20    21    1
    29    21    22    1
    30    23    24    1
    31    23    88    1
    32    23    89    1
    33    24    25    1
    34    24    26    1
    35    24    90    1
    36    25    91    1
    37    25    92    1
    38    25    93    1
    39    26    94    1
    40    26    95    1
    41    26    96    1
    42    27    28   ar
    43    28    29   ar
    44    29    30   ar
    45    29    31    1
    46    30    33    1
    47    31    32    1
    48    32    33    1
    49    32    35    1
    50    34    97    1
    51    34    98    1
    52    34    99    1
    53    35    61    1
    54    36    37    1
    55    36    60    1
    56    37    38    1
    57    38    39    1
    58    39    40    1
    59    40    41    1
    60    41    42    1
    61    45   100    1
    62    47   101    1
    63    47   102    1
    64    47   103    1
    65    48   104    1
    66    49   105    1
    67    49   106    1
    68    49   107    1
    69    50   108    1
    70    51    59    1
    71    52   109    1
    72    52   110    1
    73    52   111    1
    74    53    54    1
    75    54    55    2
    76    54    56    1
    77    56   112    1
    78    56   113    1
    79    56   114    1
    80    57   115    1
    81    57   116    1
    82    57   117    1
    83    58   118    1
    84    58   119    1
    85    58   120    1
    86    59   121    1
    87    59   122    1
    88    59   123    1
    89    60    61    2
    90     1    47    1
    91     1    62    1
    92     2    63    1
    93     3    64    1
    94     4    65    1
    95     5     6    1
    96     7     8    2
    97     9    78    1
    98    15    79    1
    99    18    80    1
   100    18    81    1
   101    19    82    1
   102    19    83    1
   103    20    23    1
   104    21    84    1
   105    21    85    1
   106    22    86    1
   107    22    87    1
   108    27    45    1
   109    28    34    1
   110    32    58    1
   111    33    46    2
   112    36    51    1
   113    36    66    1
   114    37    52    1
   115    37    67    1
   116    38    53    1
   117    38    68    1
   118    42    48    1
   119    42    72    1
   120    43    44    2
   121    60    73    1
   122    61    74    1
   123    39    69    1
   124    39    57    1
   125    40    70    1
   126    40    50    1
   127    41    71    1
   128    41    49    1
