@<TRIPOS>MOLECULE
*****
 123 128 0 0 0
SMALL
GASTEIGER

@<TRIPOS>ATOM
     1 C         -3.244741   4.084599   -1.347163 C.3        1 UNL1     0.0009
     2 C         -4.66879   4.540835   -2.443051 C.2        1 UNL1     -0.0787
     3 C         -5.198967   5.271903   -3.574642 C.2        1 UNL1     -0.0649
     4 C         -6.755082   5.18129   -4.235439 C.2        1 UNL1     -0.0542
     5 C         -7.545596   5.435139   -5.383362 C.2        1 UNL1     0.0115
     6 C         -7.554464   6.123925   -6.775776 C.3        1 UNL1     -0.0348
     7 C         -8.969806   4.707589   -5.522237 C.2        1 UNL1     0.2441
     8 O         -10.030915   5.273933   -5.299016 O.2        1 UNL1     -0.2702
     9 N         -8.932955   3.458994   -6.167065 N.am        1 UNL1     -0.2772
     10 C         -8.692271   2.455441   -5.256969 C.2        1 UNL1     0.1049
     11 C         -7.427602   2.252911   -4.934766 C.2        1 UNL1     0.0801
     12 C         -9.439275   1.565571   -3.041693 C.ar        1 UNL1     0.0753
     13 C         -8.05832   1.562463   -2.665446 C.ar        1 UNL1     0.0305
     14 C         -6.997585   1.781825   -3.646146 C.2        1 UNL1     0.0924
     15 N         -6.305009   2.724694   -5.503742 N.pl3        1 UNL1     -0.3170
     16 C         -5.186947   2.067029   -4.881112 C.3        1 UNL1     0.1275
     17 N         -5.677523   1.716125   -3.497665 N.2        1 UNL1     -0.2557
     18 C         -4.981235   0.740711   -5.606554 C.3        1 UNL1     0.0016
     19 C         -4.798423   1.020849   -7.08969 C.3        1 UNL1     0.0026
     20 N         -3.647382   1.896322   -7.261967 N.3        1 UNL1     -0.3018
     21 C         -3.725528   3.17346   -6.549802 C.3        1 UNL1     0.0026
     22 C         -3.90438   2.868275   -5.061592 C.3        1 UNL1     0.0016
     23 C         -3.206325   1.983419   -8.639838 C.3        1 UNL1     0.0012
     24 C         -3.979297   3.083445   -9.384293 C.3        1 UNL1     -0.0339
     25 C         -3.189382   4.40217   -9.416785 C.3        1 UNL1     -0.0615
     26 C         -4.338293   2.612269   -10.782827 C.3        1 UNL1     -0.0615
     27 C         -10.437202   1.236722   -2.127298 C.ar        1 UNL1     0.1347
     28 C         -10.174853   0.850974   -0.82483 C.ar        1 UNL1     0.0342
     29 C         -8.811942   0.902502   -0.462914 C.ar        1 UNL1     0.1435
     30 C         -7.804563   1.264923   -1.357932 C.ar        1 UNL1     0.0774
     31 O         -8.383718   0.451679   0.736415 O.3        1 UNL1     -0.4436
     32 C         -6.977829   0.223243   0.557066 C.3        1 UNL1     0.3143
     33 C         -6.57752   1.109673   -0.604918 C.2        1 UNL1     0.2504
     34 C         -11.164238   0.245962   0.131819 C.3        1 UNL1     -0.0327
     35 O         -6.311862   0.732578   1.719098 O.2        1 UNL1     -0.4528
     36 C         -3.203691   -1.401892   2.156589 C.3        1 UNL1     0.0854
     37 C         -2.0219   -1.660201   1.144577 C.3        1 UNL1     0.0236
     38 C         -0.560339   -1.323146   1.712009 C.3        1 UNL1     0.1131
     39 C         -0.284701   0.080587   2.387158 C.3        1 UNL1     0.0200
     40 C         -0.87453   1.480196   1.697496 C.3        1 UNL1     0.0661
     41 C         -0.708513   1.933015   0.071149 C.3        1 UNL1     0.0091
     42 C         -1.827737   2.898298   -1.015575 C.3        1 UNL1     0.0661
     43 C         -9.767468   1.843637   -4.461984 C.2        1 UNL1     0.2131
     44 O         -10.8103   1.503673   -4.990817 O.2        1 UNL1     -0.2851
     45 O         -11.759202   1.30856   -2.56157 O.3        1 UNL1     -0.5056
     46 O         -5.494889   1.596452   -0.843266 O.2        1 UNL1     -0.2836
     47 C         -2.90421   5.257635   -0.389037 C.3        1 UNL1     -0.0566
     48 O         -0.752077   3.777796   -1.533797 O.3        1 UNL1     -0.3909
     49 C         -0.247579   0.732553   -0.725045 C.3        1 UNL1     -0.0577
     50 O         -2.19168   1.740144   2.139384 O.3        1 UNL1     -0.3910
     51 O         -2.855331   -0.75014   3.357129 O.3        1 UNL1     -0.3753
     52 C         -2.43635   -1.338204   -0.328344 C.3        1 UNL1     -0.0564
     53 O         0.552317   -1.896056   0.883699 O.3        1 UNL1     -0.4608
     54 C         1.847844   -1.449453   0.874427 C.2        1 UNL1     0.3042
     55 O         2.235213   -0.282135   0.84047 O.2        1 UNL1     -0.2512
     56 C         2.864421   -2.550977   0.97408 C.3        1 UNL1     0.0332
     57 C         -0.456906   -0.101866   3.966788 C.3        1 UNL1     -0.0567
     58 C         -6.82576   -1.255779   0.131742 C.3        1 UNL1     0.0210
     59 C         -3.782379   -0.928778   4.426958 C.3        1 UNL1     0.0372
     60 C         -4.366835   -0.665847   1.590468 C.2        1 UNL1     -0.0208
     61 C         -5.076712   0.345867   2.09172 C.2        1 UNL1     0.0882
     62 H         -3.911   3.411862   -0.793777 H        1 UNL1     0.0365
     63 H         -5.48716   4.021153   -1.940387 H        1 UNL1     0.0576
     64 H         -4.552224   5.858115   -4.231291 H        1 UNL1     0.0615
     65 H         -7.331674   4.651084   -3.472612 H        1 UNL1     0.0622
     66 H         -3.575552   -2.405027   2.408551 H        1 UNL1     0.0645
     67 H         -1.976467   -2.759943   1.060527 H        1 UNL1     0.0362
     68 H         -0.507483   -2.056346   2.531245 H        1 UNL1     0.0741
     69 H         0.782786   0.255605   2.402881 H        1 UNL1     0.0359
     70 H         -0.253046   2.229131   2.224672 H        1 UNL1     0.0600
     71 H         0.225241   2.525975   0.129956 H        1 UNL1     0.0348
     72 H         -2.131257   3.130842   0.0155 H        1 UNL1     0.0602
     73 H         -4.687541   -1.150037   0.701673 H        1 UNL1     0.0628
     74 H         -4.784744   0.931373   2.964173 H        1 UNL1     0.1022
     75 H         -6.630229   6.734573   -6.916958 H        1 UNL1     0.0279
     76 H         -7.535641   5.466712   -7.642255 H        1 UNL1     0.0279
     77 H         -8.337188   6.891371   -6.865618 H        1 UNL1     0.0279
     78 H         -8.173716   3.446376   -6.84491 H        1 UNL1     0.1553
     79 H         -6.266778   3.09821   -6.43431 H        1 UNL1     0.1484
     80 H         -4.105315   0.234023   -5.18371 H        1 UNL1     0.0317
     81 H         -5.835255   0.072879   -5.450665 H        1 UNL1     0.0317
     82 H         -5.70197   1.462723   -7.534957 H        1 UNL1     0.0428
     83 H         -4.655126   0.061655   -7.588149 H        1 UNL1     0.0428
     84 H         -2.81623   3.77715   -6.630708 H        1 UNL1     0.0428
     85 H         -4.513285   3.821608   -6.958043 H        1 UNL1     0.0428
     86 H         -3.823995   3.814913   -4.560193 H        1 UNL1     0.0317
     87 H         -3.038627   2.308455   -4.687199 H        1 UNL1     0.0317
     88 H         -2.139761   2.243676   -8.641232 H        1 UNL1     0.0429
     89 H         -3.302187   1.016865   -9.15107 H        1 UNL1     0.0429
     90 H         -4.933354   3.26038   -8.873723 H        1 UNL1     0.0308
     91 H         -3.715638   5.166853   -9.995937 H        1 UNL1     0.0233
     92 H         -3.017269   4.774417   -8.404155 H        1 UNL1     0.0233
     93 H         -2.198469   4.284327   -9.871801 H        1 UNL1     0.0233
     94 H         -3.83819   3.236084   -11.53155 H        1 UNL1     0.0233
     95 H         -4.005056   1.580643   -10.926573 H        1 UNL1     0.0233
     96 H         -5.416922   2.662194   -10.956132 H        1 UNL1     0.0233
     97 H         -11.90452   0.968051   0.463182 H        1 UNL1     0.0280
     98 H         -11.730161   -0.577141   -0.323692 H        1 UNL1     0.0280
     99 H         -10.633351   -0.136537   1.01892 H        1 UNL1     0.0280
     100 H         -12.083482   0.520551   -2.960953 H        1 UNL1     0.2922
     101 H         -2.391962   6.045842   -0.940389 H        1 UNL1     0.0236
     102 H         -2.343847   4.943509   0.490907 H        1 UNL1     0.0236
     103 H         -3.810559   5.740712   0.012661 H        1 UNL1     0.0236
     104 H         -0.685111   4.546529   -0.934184 H        1 UNL1     0.2098
     105 H         -1.005592   0.309868   -1.379694 H        1 UNL1     0.0234
     106 H         0.684262   0.878817   -1.271129 H        1 UNL1     0.0234
     107 H         0.0   0.0   0.0 H        1 UNL1     0.0234
     108 H         -2.400312   2.664164   1.901836 H        1 UNL1     0.2098
     109 H         -2.747947   -0.291803   -0.453505 H        1 UNL1     0.0234
     110 H         -1.654782   -1.577499   -1.057476 H        1 UNL1     0.0234
     111 H         -3.294177   -1.944175   -0.64909 H        1 UNL1     0.0234
     112 H         3.03079   -2.809984   2.024119 H        1 UNL1     0.0342
     113 H         2.576105   -3.427851   0.396317 H        1 UNL1     0.0342
     114 H         3.813848   -2.17975   0.56427 H        1 UNL1     0.0342
     115 H         0.148793   -0.934536   4.350164 H        1 UNL1     0.0234
     116 H         -0.198839   0.786274   4.547011 H        1 UNL1     0.0234
     117 H         -1.47051   -0.420749   4.264885 H        1 UNL1     0.0234
     118 H         -6.023853   -1.392139   -0.614822 H        1 UNL1     0.0309
     119 H         -6.647505   -1.929427   0.975914 H        1 UNL1     0.0309
     120 H         -7.715127   -1.639595   -0.37994 H        1 UNL1     0.0309
     121 H         -4.453146   -0.070043   4.428815 H        1 UNL1     0.0524
     122 H         -4.400713   -1.832724   4.298188 H        1 UNL1     0.0524
     123 H         -3.254898   -0.994434   5.374348 H        1 UNL1     0.0524
@<TRIPOS>BOND
     1     1     2    1
     2     1    42    1
     3     2     3    2
     4     3     4    1
     5     4     5    2
     6     5     7    1
     7     6    75    1
     8     6    76    1
     9     6    77    1
    10     7     9   am
    11     9    10    1
    12    10    11    2
    13    10    43    1
    14    11    14    1
    15    11    15    1
    16    12    13   ar
    17    12    27   ar
    18    12    43    1
    19    13    14    1
    20    13    30   ar
    21    14    17    2
    22    15    16    1
    23    16    17    1
    24    16    18    1
    25    16    22    1
    26    18    19    1
    27    19    20    1
    28    20    21    1
    29    21    22    1
    30    23    24    1
    31    23    88    1
    32    23    89    1
    33    24    25    1
    34    24    26    1
    35    24    90    1
    36    25    91    1
    37    25    92    1
    38    25    93    1
    39    26    94    1
    40    26    95    1
    41    26    96    1
    42    27    28   ar
    43    28    29   ar
    44    29    30   ar
    45    29    31    1
    46    30    33    1
    47    31    32    1
    48    32    33    1
    49    32    35    1
    50    34    97    1
    51    34    98    1
    52    34    99    1
    53    35    61    1
    54    36    37    1
    55    36    60    1
    56    37    38    1
    57    38    39    1
    58    39    40    1
    59    40    41    1
    60    41    42    1
    61    45   100    1
    62    47   101    1
    63    47   102    1
    64    47   103    1
    65    48   104    1
    66    49   105    1
    67    49   106    1
    68    49   107    1
    69    50   108    1
    70    51    59    1
    71    52   109    1
    72    52   110    1
    73    52   111    1
    74    53    54    1
    75    54    55    2
    76    54    56    1
    77    56   112    1
    78    56   113    1
    79    56   114    1
    80    57   115    1
    81    57   116    1
    82    57   117    1
    83    58   118    1
    84    58   119    1
    85    58   120    1
    86    59   121    1
    87    59   122    1
    88    59   123    1
    89    60    61    2
    90     1    47    1
    91     1    62    1
    92     2    63    1
    93     3    64    1
    94     4    65    1
    95     5     6    1
    96     7     8    2
    97     9    78    1
    98    15    79    1
    99    18    80    1
   100    18    81    1
   101    19    82    1
   102    19    83    1
   103    20    23    1
   104    21    84    1
   105    21    85    1
   106    22    86    1
   107    22    87    1
   108    27    45    1
   109    28    34    1
   110    32    58    1
   111    33    46    2
   112    36    51    1
   113    36    66    1
   114    37    52    1
   115    37    67    1
   116    38    53    1
   117    38    68    1
   118    42    48    1
   119    42    72    1
   120    43    44    2
   121    60    73    1
   122    61    74    1
   123    39    69    1
   124    39    57    1
   125    40    70    1
   126    40    50    1
   127    41    71    1
   128    41    49    1
