@<TRIPOS>MOLECULE
*****
 123 128 0 0 0
SMALL
GASTEIGER

@<TRIPOS>ATOM
     1 C         -1.522884   -0.211018   -4.490554 C.3        1 UNL1     0.0009
     2 C         -2.844297   -1.077143   -5.460468 C.2        1 UNL1     -0.0787
     3 C         -3.33253   -2.257313   -6.142284 C.2        1 UNL1     -0.0649
     4 C         -4.861623   -2.50691   -6.824877 C.2        1 UNL1     -0.0542
     5 C         -5.791476   -3.480708   -7.265525 C.2        1 UNL1     0.0115
     6 C         -5.977744   -4.992166   -7.572316 C.3        1 UNL1     -0.0348
     7 C         -7.328308   -3.057518   -7.455383 C.2        1 UNL1     0.2441
     8 O         -7.826238   -2.832662   -8.549929 O.2        1 UNL1     -0.2702
     9 N         -8.128611   -3.216083   -6.310602 N.am        1 UNL1     -0.2772
     10 C         -8.08254   -2.082695   -5.531736 C.2        1 UNL1     0.1049
     11 C         -7.049678   -1.979175   -4.715219 C.2        1 UNL1     0.0801
     12 C         -8.297096   0.407281   -5.638132 C.ar        1 UNL1     0.0753
     13 C         -7.056487   0.466135   -4.926773 C.ar        1 UNL1     0.0305
     14 C         -6.460519   -0.726054   -4.327975 C.2        1 UNL1     0.0924
     15 N         -6.133946   -2.896687   -4.360066 N.pl3        1 UNL1     -0.3170
     16 C         -5.325769   -2.328788   -3.313836 C.3        1 UNL1     0.1275
     17 N         -5.381439   -0.840656   -3.558962 N.2        1 UNL1     -0.2557
     18 C         -6.057352   -2.568668   -1.996663 C.3        1 UNL1     0.0016
     19 C         -6.317982   -4.059315   -1.849579 C.3        1 UNL1     0.0026
     20 N         -5.042627   -4.76202   -1.876098 N.3        1 UNL1     -0.3018
     21 C         -4.237236   -4.543421   -3.079397 C.3        1 UNL1     0.0026
     22 C         -3.983521   -3.040174   -3.204982 C.3        1 UNL1     0.0016
     23 C         -5.15023   -6.142271   -1.447178 C.3        1 UNL1     0.0012
     24 C         -3.83394   -6.891439   -1.707725 C.3        1 UNL1     -0.0339
     25 C         -3.123627   -6.360229   -2.963642 C.3        1 UNL1     -0.0615
     26 C         -2.93854   -6.812285   -0.483481 C.3        1 UNL1     -0.0615
     27 C         -8.919127   1.564317   -6.101234 C.ar        1 UNL1     0.1347
     28 C         -8.418429   2.834858   -5.879694 C.ar        1 UNL1     0.0342
     29 C         -7.17145   2.865193   -5.219932 C.ar        1 UNL1     0.1435
     30 C         -6.518802   1.71212   -4.782104 C.ar        1 UNL1     0.0774
     31 O         -6.606604   4.030028   -4.833776 O.3        1 UNL1     -0.4436
     32 C         -5.655822   3.655339   -3.825563 C.3        1 UNL1     0.3143
     33 C         -5.336559   2.200301   -4.103321 C.2        1 UNL1     0.2504
     34 C         -9.149798   4.125588   -6.123034 C.3        1 UNL1     -0.0327
     35 O         -4.456896   4.400095   -4.072883 O.2        1 UNL1     -0.4528
     36 C         -2.827308   4.904983   -0.682069 C.3        1 UNL1     0.0854
     37 C         -2.373452   3.826696   0.375681 C.3        1 UNL1     0.0236
     38 C         -0.836627   3.92415   0.823361 C.3        1 UNL1     0.1131
     39 C         0.298679   3.991302   -0.276112 C.3        1 UNL1     0.0200
     40 C         0.242231   2.99258   -1.610955 C.3        1 UNL1     0.0661
     41 C         -0.001748   1.314043   -1.586469 C.3        1 UNL1     0.0091
     42 C         -0.833391   0.214627   -2.796864 C.3        1 UNL1     0.0661
     43 C         -8.94471   -0.919465   -5.788471 C.2        1 UNL1     0.2131
     44 O         -10.133801   -1.067324   -6.005125 O.2        1 UNL1     -0.2851
     45 O         -10.100959   1.416156   -6.824253 O.3        1 UNL1     -0.5056
     46 O         -4.325196   1.587761   -3.842949 O.2        1 UNL1     -0.2836
     47 C         -0.342458   0.182065   -5.419027 C.3        1 UNL1     -0.0566
     48 O         0.257521   -0.789835   -2.806076 O.3        1 UNL1     -0.3909
     49 C         -0.494927   0.912567   -0.214214 C.3        1 UNL1     -0.0577
     50 O         -0.526877   3.577622   -2.642421 O.3        1 UNL1     -0.3910
     51 O         -1.800643   5.700695   -1.230003 O.3        1 UNL1     -0.3753
     52 C         -3.088332   2.454329   0.150952 C.3        1 UNL1     -0.0564
     53 O         -0.52104   3.138303   2.062383 O.3        1 UNL1     -0.4608
     54 C         -0.842388   1.822897   2.273032 C.2        1 UNL1     0.3042
     55 O         -1.963369   1.315986   2.256275 O.2        1 UNL1     -0.2512
     56 C         0.352915   0.938908   2.488739 C.3        1 UNL1     0.0332
     57 C         0.649492   5.533614   -0.513549 C.3        1 UNL1     -0.0567
     58 C         -6.393733   3.754225   -2.470115 C.3        1 UNL1     0.0210
     59 C         -2.246214   6.731031   -2.110764 C.3        1 UNL1     0.0372
     60 C         -3.613629   4.370532   -1.827155 C.2        1 UNL1     -0.0208
     61 C         -3.517031   4.62038   -3.133673 C.2        1 UNL1     0.0882
     62 H         -2.174887   0.668284   -4.423981 H        1 UNL1     0.0365
     63 H         -3.563578   -0.266365   -5.59368 H        1 UNL1     0.0576
     64 H         -2.774989   -3.196533   -6.131285 H        1 UNL1     0.0615
     65 H         -5.297664   -1.504884   -6.860872 H        1 UNL1     0.0622
     66 H         -3.51097   5.563953   -0.128524 H        1 UNL1     0.0645
     67 H         -2.891654   4.126295   1.303186 H        1 UNL1     0.0362
     68 H         -0.845155   4.918602   1.295076 H        1 UNL1     0.0741
     69 H         1.241966   3.723297   0.180824 H        1 UNL1     0.0359
     70 H         1.288406   3.082688   -1.960899 H        1 UNL1     0.0600
     71 H         1.04934   0.966465   -1.549609 H        1 UNL1     0.0348
     72 H         -0.589806   1.137558   -3.342923 H        1 UNL1     0.0602
     73 H         -4.424753   3.795032   -1.455503 H        1 UNL1     0.0628
     74 H         -2.686586   5.151364   -3.600209 H        1 UNL1     0.1022
     75 H         -5.465193   -5.26461   -8.526308 H        1 UNL1     0.0279
     76 H         -5.537628   -5.689082   -6.862614 H        1 UNL1     0.0279
     77 H         -7.020606   -5.25368   -7.804156 H        1 UNL1     0.0279
     78 H         -7.774067   -3.987892   -5.749632 H        1 UNL1     0.1553
     79 H         -6.264453   -3.885504   -4.470255 H        1 UNL1     0.1484
     80 H         -5.443795   -2.186069   -1.172084 H        1 UNL1     0.0317
     81 H         -7.002086   -2.015251   -1.967366 H        1 UNL1     0.0317
     82 H         -6.992694   -4.433939   -2.633373 H        1 UNL1     0.0428
     83 H         -6.841905   -4.207753   -0.904846 H        1 UNL1     0.0428
     84 H         -3.251508   -5.0173   -3.039517 H        1 UNL1     0.0428
     85 H         -4.707533   -4.980554   -3.971054 H        1 UNL1     0.0428
     86 H         -3.285524   -2.93095   -4.014215 H        1 UNL1     0.0317
     87 H         -3.421065   -2.681082   -2.334469 H        1 UNL1     0.0317
     88 H         -5.348887   -6.149891   -0.367469 H        1 UNL1     0.0429
     89 H         -5.995556   -6.646156   -1.933284 H        1 UNL1     0.0429
     90 H         -4.049558   -7.956658   -1.852741 H        1 UNL1     0.0308
     91 H         -3.095378   -7.116027   -3.754258 H        1 UNL1     0.0233
     92 H         -3.623792   -5.465157   -3.340855 H        1 UNL1     0.0233
     93 H         -2.085124   -6.069225   -2.764482 H        1 UNL1     0.0233
     94 H         -3.106995   -7.679326   0.164361 H        1 UNL1     0.0233
     95 H         -1.888156   -6.817871   -0.787824 H        1 UNL1     0.0233
     96 H         -3.133472   -5.905232   0.095504 H        1 UNL1     0.0233
     97 H         -10.022101   4.226338   -5.484154 H        1 UNL1     0.0280
     98 H         -8.522386   5.00224   -5.915451 H        1 UNL1     0.0280
     99 H         -9.483485   4.168448   -7.172754 H        1 UNL1     0.0280
     100 H         -10.827638   1.913961   -6.492966 H        1 UNL1     0.2922
     101 H         0.56962   -0.310562   -5.082743 H        1 UNL1     0.0236
     102 H         -0.213535   1.259575   -5.515638 H        1 UNL1     0.0236
     103 H         -0.490173   -0.176947   -6.45125 H        1 UNL1     0.0236
     104 H         -0.001606   -1.512268   -2.201167 H        1 UNL1     0.2098
     105 H         -0.248836   1.617895   0.575573 H        1 UNL1     0.0234
     106 H         -1.551443   0.648597   -0.169258 H        1 UNL1     0.0234
     107 H         0.0   -0.0   0.0 H        1 UNL1     0.0234
     108 H         -0.091142   3.359232   -3.488713 H        1 UNL1     0.2098
     109 H         -3.601701   2.406723   -0.819563 H        1 UNL1     0.0234
     110 H         -2.414664   1.596549   0.251588 H        1 UNL1     0.0234
     111 H         -3.864203   2.273586   0.906798 H        1 UNL1     0.0234
     112 H         1.091782   1.456633   3.107917 H        1 UNL1     0.0342
     113 H         0.079464   -0.020017   2.926382 H        1 UNL1     0.0342
     114 H         0.813083   0.739537   1.51116 H        1 UNL1     0.0342
     115 H         1.720764   5.73475   -0.375318 H        1 UNL1     0.0234
     116 H         0.370388   5.905397   -1.50144 H        1 UNL1     0.0234
     117 H         0.207213   6.206591   0.241059 H        1 UNL1     0.0234
     118 H         -6.459483   4.79546   -2.10885 H        1 UNL1     0.0309
     119 H         -7.398099   3.319678   -2.495023 H        1 UNL1     0.0309
     120 H         -5.860785   3.239994   -1.662873 H        1 UNL1     0.0309
     121 H         -2.771924   7.473235   -1.510665 H        1 UNL1     0.0524
     122 H         -1.408716   7.243091   -2.613187 H        1 UNL1     0.0524
     123 H         -2.911133   6.319411   -2.864785 H        1 UNL1     0.0524
@<TRIPOS>BOND
     1     1     2    1
     2     1    42    1
     3     2     3    2
     4     3     4    1
     5     4     5    2
     6     5     7    1
     7     6    75    1
     8     6    76    1
     9     6    77    1
    10     7     9   am
    11     9    10    1
    12    10    11    2
    13    10    43    1
    14    11    14    1
    15    11    15    1
    16    12    13   ar
    17    12    27   ar
    18    12    43    1
    19    13    14    1
    20    13    30   ar
    21    14    17    2
    22    15    16    1
    23    16    17    1
    24    16    18    1
    25    16    22    1
    26    18    19    1
    27    19    20    1
    28    20    21    1
    29    21    22    1
    30    23    24    1
    31    23    88    1
    32    23    89    1
    33    24    25    1
    34    24    26    1
    35    24    90    1
    36    25    91    1
    37    25    92    1
    38    25    93    1
    39    26    94    1
    40    26    95    1
    41    26    96    1
    42    27    28   ar
    43    28    29   ar
    44    29    30   ar
    45    29    31    1
    46    30    33    1
    47    31    32    1
    48    32    33    1
    49    32    35    1
    50    34    97    1
    51    34    98    1
    52    34    99    1
    53    35    61    1
    54    36    37    1
    55    36    60    1
    56    37    38    1
    57    38    39    1
    58    39    40    1
    59    40    41    1
    60    41    42    1
    61    45   100    1
    62    47   101    1
    63    47   102    1
    64    47   103    1
    65    48   104    1
    66    49   105    1
    67    49   106    1
    68    49   107    1
    69    50   108    1
    70    51    59    1
    71    52   109    1
    72    52   110    1
    73    52   111    1
    74    53    54    1
    75    54    55    2
    76    54    56    1
    77    56   112    1
    78    56   113    1
    79    56   114    1
    80    57   115    1
    81    57   116    1
    82    57   117    1
    83    58   118    1
    84    58   119    1
    85    58   120    1
    86    59   121    1
    87    59   122    1
    88    59   123    1
    89    60    61    2
    90     1    47    1
    91     1    62    1
    92     2    63    1
    93     3    64    1
    94     4    65    1
    95     5     6    1
    96     7     8    2
    97     9    78    1
    98    15    79    1
    99    18    80    1
   100    18    81    1
   101    19    82    1
   102    19    83    1
   103    20    23    1
   104    21    84    1
   105    21    85    1
   106    22    86    1
   107    22    87    1
   108    27    45    1
   109    28    34    1
   110    32    58    1
   111    33    46    2
   112    36    51    1
   113    36    66    1
   114    37    52    1
   115    37    67    1
   116    38    53    1
   117    38    68    1
   118    42    48    1
   119    42    72    1
   120    43    44    2
   121    60    73    1
   122    61    74    1
   123    39    69    1
   124    39    57    1
   125    40    70    1
   126    40    50    1
   127    41    71    1
   128    41    49    1
