@<TRIPOS>MOLECULE
*****
 123 128 0 0 0
SMALL
GASTEIGER

@<TRIPOS>ATOM
     1 C         1.963335   -1.692245   3.215984 C.3        1 UNL1     0.0009
     2 C         3.261158   -3.015982   3.195717 C.2        1 UNL1     -0.0787
     3 C         3.631679   -4.413112   3.278106 C.2        1 UNL1     -0.0649
     4 C         5.161509   -5.099508   3.043929 C.2        1 UNL1     -0.0542
     5 C         5.865818   -6.292707   2.74846 C.2        1 UNL1     0.0115
     6 C         5.721301   -7.831707   2.593812 C.3        1 UNL1     -0.0348
     7 C         7.384521   -6.192272   2.238122 C.2        1 UNL1     0.2441
     8 O         8.345714   -6.412893   2.961972 O.2        1 UNL1     -0.2702
     9 N         7.531807   -6.090378   0.843821 N.am        1 UNL1     -0.2772
     10 C         7.484479   -4.772515   0.450984 C.2        1 UNL1     0.1049
     11 C         6.279641   -4.254338   0.2958 C.2        1 UNL1     0.0801
     12 C         8.431613   -2.514708   0.963405 C.ar        1 UNL1     0.0753
     13 C         7.081302   -2.040835   0.99012 C.ar        1 UNL1     0.0305
     14 C         5.970347   -2.869338   0.527074 C.2        1 UNL1     0.0924
     15 N         5.078917   -4.856909   0.254602 N.pl3        1 UNL1     -0.3170
     16 C         4.101529   -3.864715   -0.106673 C.3        1 UNL1     0.1275
     17 N         4.683489   -2.563218   0.388455 N.2        1 UNL1     -0.2557
     18 C         4.092499   -3.772401   -1.629531 C.3        1 UNL1     0.0016
     19 C         3.822608   -5.156025   -2.199035 C.3        1 UNL1     0.0026
     20 N         2.54005   -5.627287   -1.695067 N.3        1 UNL1     -0.3018
     21 C         2.430859   -5.691338   -0.236183 C.3        1 UNL1     0.0026
     22 C         2.701062   -4.290025   0.314458 C.3        1 UNL1     0.0016
     23 C         2.049943   -6.793205   -2.402935 C.3        1 UNL1     0.0012
     24 C         2.712832   -6.902242   -3.785123 C.3        1 UNL1     -0.0339
     25 C         3.686878   -5.73912   -4.035001 C.3        1 UNL1     -0.0615
     26 C         3.401404   -8.248464   -3.927722 C.3        1 UNL1     -0.0615
     27 C         9.496435   -1.678963   1.291737 C.ar        1 UNL1     0.1347
     28 C         9.339058   -0.344865   1.622595 C.ar        1 UNL1     0.0342
     29 C         7.997244   0.08661   1.689885 C.ar        1 UNL1     0.1435
     30 C         6.918222   -0.748988   1.398839 C.ar        1 UNL1     0.0774
     31 O         7.683771   1.385138   1.891296 O.3        1 UNL1     -0.4436
     32 C         6.328952   1.506547   1.432387 C.3        1 UNL1     0.3143
     33 C         5.755622   0.106324   1.515327 C.2        1 UNL1     0.2504
     34 C         10.441567   0.670408   1.74004 C.3        1 UNL1     -0.0327
     35 O         5.623942   2.303548   2.392076 O.2        1 UNL1     -0.4528
     36 C         2.918123   4.122021   0.447907 C.3        1 UNL1     0.0854
     37 C         1.764426   3.527182   -0.448012 C.3        1 UNL1     0.0236
     38 C         0.285049   3.996496   -0.044361 C.3        1 UNL1     0.1131
     39 C         -0.194732   3.87476   1.458057 C.3        1 UNL1     0.0200
     40 C         0.139173   2.500717   2.342901 C.3        1 UNL1     0.0661
     41 C         -0.146456   0.904421   1.84504 C.3        1 UNL1     0.0091
     42 C         0.768318   -0.640856   2.220154 C.3        1 UNL1     0.0661
     43 C         8.667919   -3.900473   0.487931 C.2        1 UNL1     0.2131
     44 O         9.735933   -4.289167   0.050897 O.2        1 UNL1     -0.2851
     45 O         10.775712   -2.231089   1.284955 O.3        1 UNL1     -0.5056
     46 O         4.601703   -0.227736   1.666088 O.2        1 UNL1     -0.2836
     47 C         1.465432   -1.44735   4.665846 C.3        1 UNL1     -0.0566
     48 O         -0.450831   -1.416229   2.554201 O.3        1 UNL1     -0.3909
     49 C         -0.42975   0.899882   0.359369 C.3        1 UNL1     -0.0577
     50 O         1.409158   2.595726   2.955955 O.3        1 UNL1     -0.3910
     51 O         2.504373   4.84296   1.586542 O.3        1 UNL1     -0.3753
     52 C         2.077104   2.064487   -0.903761 C.3        1 UNL1     -0.0564
     53 O         -0.743903   3.712532   -1.099324 O.3        1 UNL1     -0.4608
     54 C         -1.982972   3.171348   -0.876258 C.2        1 UNL1     0.3042
     55 O         -2.444762   2.138303   -1.35938 O.2        1 UNL1     -0.2512
     56 C         -2.803868   3.938882   0.120604 C.3        1 UNL1     0.0332
     57 C         0.051699   5.290995   2.159289 C.3        1 UNL1     -0.0567
     58 C         6.406552   1.926618   -0.053899 C.3        1 UNL1     0.0210
     59 C         1.786661   4.076877   2.552913 C.3        1 UNL1     0.0372
     60 C         3.928924   3.132305   0.910407 C.2        1 UNL1     -0.0208
     61 C         4.479633   2.95644   2.112296 C.2        1 UNL1     0.0882
     62 H         2.746165   -0.948552   3.024127 H        1 UNL1     0.0365
     63 H         4.167644   -2.41128   3.124387 H        1 UNL1     0.0576
     64 H         2.879081   -5.201916   3.345137 H        1 UNL1     0.0615
     65 H         5.838979   -4.241742   3.071406 H        1 UNL1     0.0622
     66 H         3.4553   4.81315   -0.216794 H        1 UNL1     0.0645
     67 H         1.89574   4.02917   -1.422345 H        1 UNL1     0.0362
     68 H         0.376358   5.076723   -0.234874 H        1 UNL1     0.0741
     69 H         -1.275526   3.915823   1.482676 H        1 UNL1     0.0359
     70 H         -0.579752   2.630022   3.174458 H        1 UNL1     0.0600
     71 H         -1.161955   0.751277   2.26009 H        1 UNL1     0.0348
     72 H         1.060551   0.080696   2.996863 H        1 UNL1     0.0602
     73 H         4.29745   2.592488   0.073727 H        1 UNL1     0.0628
     74 H         4.122508   3.426845   3.029039 H        1 UNL1     0.1022
     75 H         5.71661   -8.118525   1.514577 H        1 UNL1     0.0279
     76 H         6.531227   -8.437648   2.993719 H        1 UNL1     0.0279
     77 H         4.738405   -8.201525   2.920691 H        1 UNL1     0.0279
     78 H         6.764889   -6.575267   0.382522 H        1 UNL1     0.1553
     79 H         4.952882   -5.835694   0.072869 H        1 UNL1     0.1484
     80 H         3.323468   -3.054636   -1.939648 H        1 UNL1     0.0317
     81 H         5.0479   -3.389477   -2.004001 H        1 UNL1     0.0317
     82 H         4.628747   -5.862389   -1.951847 H        1 UNL1     0.0428
     83 H         3.822255   -5.067643   -3.285883 H        1 UNL1     0.0428
     84 H         1.433584   -5.971341   0.117163 H        1 UNL1     0.0428
     85 H         3.090395   -6.460049   0.189744 H        1 UNL1     0.0428
     86 H         2.482931   -4.344663   1.364897 H        1 UNL1     0.0317
     87 H         1.949249   -3.587061   -0.064639 H        1 UNL1     0.0317
     88 H         2.313508   -7.683884   -1.817683 H        1 UNL1     0.0429
     89 H         0.955797   -6.776905   -2.488688 H        1 UNL1     0.0429
     90 H         1.936172   -6.879626   -4.558752 H        1 UNL1     0.0308
     91 H         4.629727   -6.094542   -4.461398 H        1 UNL1     0.0233
     92 H         3.24375   -5.002154   -4.708892 H        1 UNL1     0.0233
     93 H         3.937784   -5.199288   -3.113881 H        1 UNL1     0.0233
     94 H         4.229163   -8.326735   -3.214613 H        1 UNL1     0.0233
     95 H         2.694152   -9.054488   -3.713054 H        1 UNL1     0.0233
     96 H         3.799988   -8.387942   -4.936506 H        1 UNL1     0.0233
     97 H         11.362781   0.230541   2.110324 H        1 UNL1     0.0280
     98 H         10.692505   1.122706   0.771684 H        1 UNL1     0.0280
     99 H         10.135609   1.468609   2.436 H        1 UNL1     0.0280
     100 H         11.091822   -2.476251   0.433137 H        1 UNL1     0.2922
     101 H         1.83219   -0.485261   5.022959 H        1 UNL1     0.0236
     102 H         1.715745   -2.259215   5.347903 H        1 UNL1     0.0236
     103 H         0.366943   -1.365007   4.718126 H        1 UNL1     0.0236
     104 H         -0.164648   -2.301393   2.853457 H        1 UNL1     0.2098
     105 H         -1.48631   0.889339   0.10367 H        1 UNL1     0.0234
     106 H         0.087857   1.675245   -0.205275 H        1 UNL1     0.0234
     107 H         0.0   0.0   -0.0 H        1 UNL1     0.0234
     108 H         1.963763   3.164349   2.387757 H        1 UNL1     0.2098
     109 H         1.278443   1.644528   -1.531045 H        1 UNL1     0.0234
     110 H         3.037483   1.971207   -1.422138 H        1 UNL1     0.0234
     111 H         2.170225   1.384608   -0.046417 H        1 UNL1     0.0234
     112 H         -3.292101   4.785128   -0.372186 H        1 UNL1     0.0342
     113 H         -3.533173   3.306235   0.624307 H        1 UNL1     0.0342
     114 H         -2.126172   4.340428   0.886538 H        1 UNL1     0.0342
     115 H         0.285427   6.074801   1.425663 H        1 UNL1     0.0234
     116 H         -0.790862   5.642461   2.758131 H        1 UNL1     0.0234
     117 H         0.954495   5.316694   2.793513 H        1 UNL1     0.0234
     118 H         6.734908   1.095968   -0.702905 H        1 UNL1     0.0309
     119 H         5.463083   2.328678   -0.436544 H        1 UNL1     0.0309
     120 H         7.160875   2.700552   -0.233148 H        1 UNL1     0.0309
     121 H         0.745421   4.036362   2.234265 H        1 UNL1     0.0524
     122 H         2.153713   3.039225   2.620643 H        1 UNL1     0.0524
     123 H         1.861248   4.541857   3.531853 H        1 UNL1     0.0524
@<TRIPOS>BOND
     1     1     2    1
     2     1    42    1
     3     2     3    2
     4     3     4    1
     5     4     5    2
     6     5     7    1
     7     6    75    1
     8     6    76    1
     9     6    77    1
    10     7     9   am
    11     9    10    1
    12    10    11    2
    13    10    43    1
    14    11    14    1
    15    11    15    1
    16    12    13   ar
    17    12    27   ar
    18    12    43    1
    19    13    14    1
    20    13    30   ar
    21    14    17    2
    22    15    16    1
    23    16    17    1
    24    16    18    1
    25    16    22    1
    26    18    19    1
    27    19    20    1
    28    20    21    1
    29    21    22    1
    30    23    24    1
    31    23    88    1
    32    23    89    1
    33    24    25    1
    34    24    26    1
    35    24    90    1
    36    25    91    1
    37    25    92    1
    38    25    93    1
    39    26    94    1
    40    26    95    1
    41    26    96    1
    42    27    28   ar
    43    28    29   ar
    44    29    30   ar
    45    29    31    1
    46    30    33    1
    47    31    32    1
    48    32    33    1
    49    32    35    1
    50    34    97    1
    51    34    98    1
    52    34    99    1
    53    35    61    1
    54    36    37    1
    55    36    60    1
    56    37    38    1
    57    38    39    1
    58    39    40    1
    59    40    41    1
    60    41    42    1
    61    45   100    1
    62    47   101    1
    63    47   102    1
    64    47   103    1
    65    48   104    1
    66    49   105    1
    67    49   106    1
    68    49   107    1
    69    50   108    1
    70    51    59    1
    71    52   109    1
    72    52   110    1
    73    52   111    1
    74    53    54    1
    75    54    55    2
    76    54    56    1
    77    56   112    1
    78    56   113    1
    79    56   114    1
    80    57   115    1
    81    57   116    1
    82    57   117    1
    83    58   118    1
    84    58   119    1
    85    58   120    1
    86    59   121    1
    87    59   122    1
    88    59   123    1
    89    60    61    2
    90     1    47    1
    91     1    62    1
    92     2    63    1
    93     3    64    1
    94     4    65    1
    95     5     6    1
    96     7     8    2
    97     9    78    1
    98    15    79    1
    99    18    80    1
   100    18    81    1
   101    19    82    1
   102    19    83    1
   103    20    23    1
   104    21    84    1
   105    21    85    1
   106    22    86    1
   107    22    87    1
   108    27    45    1
   109    28    34    1
   110    32    58    1
   111    33    46    2
   112    36    51    1
   113    36    66    1
   114    37    52    1
   115    37    67    1
   116    38    53    1
   117    38    68    1
   118    42    48    1
   119    42    72    1
   120    43    44    2
   121    60    73    1
   122    61    74    1
   123    39    69    1
   124    39    57    1
   125    40    70    1
   126    40    50    1
   127    41    71    1
   128    41    49    1
