@<TRIPOS>MOLECULE
*****
 123 128 0 0 0
SMALL
GASTEIGER

@<TRIPOS>ATOM
     1 C         5.196574   1.602331   0.653778 C.3        1 UNL1     0.0009
     2 C         6.684963   2.356897   -0.153914 C.2        1 UNL1     -0.0787
     3 C         7.985593   2.214123   -0.77361 C.2        1 UNL1     -0.0649
     4 C         8.924731   3.414854   -1.510238 C.2        1 UNL1     -0.0542
     5 C         9.984753   3.667422   -2.415578 C.2        1 UNL1     0.0115
     6 C         11.123173   2.999975   -3.235234 C.3        1 UNL1     -0.0348
     7 C         10.144781   5.14062   -3.032884 C.2        1 UNL1     0.2441
     8 O         10.979069   5.941887   -2.634812 O.2        1 UNL1     -0.2702
     9 N         9.441862   5.356748   -4.230943 N.am        1 UNL1     -0.2772
     10 C         8.161074   5.784097   -3.965842 C.2        1 UNL1     0.1049
     11 C         7.277366   4.841014   -3.694041 C.2        1 UNL1     0.0801
     12 C         6.86283   7.443139   -2.616961 C.ar        1 UNL1     0.0753
     13 C         6.055764   6.342777   -2.185156 C.ar        1 UNL1     0.0305
     14 C         6.156248   5.027319   -2.813268 C.2        1 UNL1     0.0924
     15 N         7.366059   3.50738   -3.835749 N.pl3        1 UNL1     -0.3170
     16 C         6.068953   2.948986   -3.56013 C.3        1 UNL1     0.1275
     17 N         5.427628   3.932935   -2.612359 N.2        1 UNL1     -0.2557
     18 C         5.262351   3.019281   -4.853248 C.3        1 UNL1     0.0016
     19 C         6.035182   2.301275   -5.94814 C.3        1 UNL1     0.0026
     20 N         6.250983   0.920122   -5.539638 N.3        1 UNL1     -0.3018
     21 C         6.966031   0.750903   -4.272973 C.3        1 UNL1     0.0026
     22 C         6.169813   1.475949   -3.186585 C.3        1 UNL1     0.0016
     23 C         6.709103   0.076005   -6.625104 C.3        1 UNL1     0.0012
     24 C         5.581374   -0.150215   -7.644324 C.3        1 UNL1     -0.0339
     25 C         5.726637   0.780459   -8.859561 C.3        1 UNL1     -0.0615
     26 C         5.540475   -1.610399   -8.060218 C.3        1 UNL1     -0.0615
     27 C         6.677236   8.722027   -2.097234 C.ar        1 UNL1     0.1347
     28 C         5.694002   9.029833   -1.173894 C.ar        1 UNL1     0.0342
     29 C         4.943733   7.921401   -0.727084 C.ar        1 UNL1     0.1435
     30 C         5.142491   6.628123   -1.212004 C.ar        1 UNL1     0.0774
     31 O         3.877716   8.074544   0.088491 O.3        1 UNL1     -0.4436
     32 C         3.125242   6.861865   -0.066632 C.3        1 UNL1     0.3143
     33 C         4.126497   5.833891   -0.553431 C.2        1 UNL1     0.2504
     34 C         5.272805   10.41309   -0.76244 C.3        1 UNL1     -0.0327
     35 O         2.70664   6.45014   1.240466 O.2        1 UNL1     -0.4528
     36 C         -0.57649   4.609326   0.75001 C.3        1 UNL1     0.0854
     37 C         -0.887782   3.348568   -0.145037 C.3        1 UNL1     0.0236
     38 C         -1.552193   2.114197   0.633829 C.3        1 UNL1     0.1131
     39 C         -0.887793   1.576396   1.964849 C.3        1 UNL1     0.0200
     40 C         0.765959   1.382846   2.065245 C.3        1 UNL1     0.0661
     41 C         1.74194   0.573726   0.938126 C.3        1 UNL1     0.0091
     42 C         3.477946   0.880131   0.430383 C.3        1 UNL1     0.0661
     43 C         7.844433   7.195664   -3.702076 C.2        1 UNL1     0.2131
     44 O         8.295251   8.073854   -4.415015 O.2        1 UNL1     -0.2851
     45 O         7.535089   9.727948   -2.53729 O.3        1 UNL1     -0.5056
     46 O         4.102372   4.631889   -0.41039 O.2        1 UNL1     -0.2836
     47 C         5.5302   1.177043   2.109046 C.3        1 UNL1     -0.0566
     48 O         3.881502   -0.542507   0.541558 O.3        1 UNL1     -0.3909
     49 C         0.944525   0.352199   -0.327792 C.3        1 UNL1     -0.0577
     50 O         1.387992   2.586835   2.466751 O.3        1 UNL1     -0.3910
     51 O         -0.754071   4.438423   2.138062 O.3        1 UNL1     -0.3753
     52 C         0.190618   3.145195   -1.258878 C.3        1 UNL1     -0.0564
     53 O         -2.153844   1.083583   -0.276213 O.3        1 UNL1     -0.4608
     54 C         -2.438371   -0.212012   0.067893 C.2        1 UNL1     0.3042
     55 O         -1.884295   -1.232019   -0.340058 O.2        1 UNL1     -0.2512
     56 C         -3.519177   -0.335603   1.103893 C.3        1 UNL1     0.0332
     57 C         -1.631815   2.279775   3.193614 C.3        1 UNL1     -0.0567
     58 C         2.095813   7.12651   -1.189917 C.3        1 UNL1     0.0210
     59 C         -1.05762   5.634015   2.855199 C.3        1 UNL1     0.0372
     60 C         0.777691   5.196788   0.559636 C.2        1 UNL1     -0.0208
     61 C         1.672555   5.614551   1.455982 C.2        1 UNL1     0.0882
     62 H         4.747236   2.600872   0.714774 H        1 UNL1     0.0365
     63 H         6.446517   3.419102   -0.068279 H        1 UNL1     0.0576
     64 H         8.421812   1.231981   -0.969104 H        1 UNL1     0.0615
     65 H         8.453253   4.347789   -1.189576 H        1 UNL1     0.0622
     66 H         -1.287594   5.373886   0.406752 H        1 UNL1     0.0645
     67 H         -1.722198   3.67645   -0.789089 H        1 UNL1     0.0362
     68 H         -2.497502   2.582335   0.94809 H        1 UNL1     0.0741
     69 H         -1.255613   0.577589   2.1585 H        1 UNL1     0.0359
     70 H         0.827691   0.729111   2.956245 H        1 UNL1     0.0600
     71 H         1.740552   -0.443594   1.376321 H        1 UNL1     0.0348
     72 H         3.352811   1.381799   1.400943 H        1 UNL1     0.0602
     73 H         0.937058   5.379274   -0.474071 H        1 UNL1     0.0628
     74 H         1.61189   5.416086   2.526575 H        1 UNL1     0.1022
     75 H         11.111706   1.892508   -3.092335 H        1 UNL1     0.0279
     76 H         11.063404   3.097235   -4.316917 H        1 UNL1     0.0279
     77 H         12.124499   3.256688   -2.859539 H        1 UNL1     0.0279
     78 H         9.372305   4.48335   -4.749031 H        1 UNL1     0.1553
     79 H         8.039286   3.053477   -4.425386 H        1 UNL1     0.1484
     80 H         4.280847   2.55877   -4.687878 H        1 UNL1     0.0317
     81 H         5.075983   4.059216   -5.142131 H        1 UNL1     0.0317
     82 H         6.98915   2.802446   -6.168788 H        1 UNL1     0.0428
     83 H         5.443069   2.364997   -6.86159 H        1 UNL1     0.0428
     84 H         7.04472   -0.291709   -3.949586 H        1 UNL1     0.0428
     85 H         8.009524   1.08754   -4.344486 H        1 UNL1     0.0428
     86 H         6.646972   1.220456   -2.258668 H        1 UNL1     0.0317
     87 H         5.17294   1.028511   -3.090976 H        1 UNL1     0.0317
     88 H         7.538556   0.588572   -7.129662 H        1 UNL1     0.0429
     89 H         7.101178   -0.878145   -6.250072 H        1 UNL1     0.0429
     90 H         4.616843   0.05138   -7.163436 H        1 UNL1     0.0308
     91 H         6.695797   0.64667   -9.349389 H        1 UNL1     0.0233
     92 H         4.930069   0.596606   -9.584328 H        1 UNL1     0.0233
     93 H         5.652224   1.839808   -8.585556 H        1 UNL1     0.0233
     94 H         4.87383   -1.739796   -8.919681 H        1 UNL1     0.0233
     95 H         6.539582   -1.942927   -8.355467 H        1 UNL1     0.0233
     96 H         5.182645   -2.247246   -7.246367 H        1 UNL1     0.0233
     97 H         4.447243   10.39477   -0.057215 H        1 UNL1     0.0280
     98 H         6.082592   10.960872   -0.263004 H        1 UNL1     0.0280
     99 H         4.955169   10.981943   -1.651601 H        1 UNL1     0.0280
     100 H         7.101853   10.488878   -2.882129 H        1 UNL1     0.2922
     101 H         4.635081   0.785841   2.592138 H        1 UNL1     0.0236
     102 H         5.995481   1.971356   2.691768 H        1 UNL1     0.0236
     103 H         6.252552   0.344384   2.141884 H        1 UNL1     0.0236
     104 H         4.261241   -0.672616   1.432536 H        1 UNL1     0.2098
     105 H         0.778452   1.250594   -0.91696 H        1 UNL1     0.0234
     106 H         1.312865   -0.45334   -0.962898 H        1 UNL1     0.0234
     107 H         0.0   -0.0   0.0 H        1 UNL1     0.0234
     108 H         1.248201   3.237859   1.752331 H        1 UNL1     0.2098
     109 H         1.199752   3.018298   -0.842637 H        1 UNL1     0.0234
     110 H         -0.036416   2.310197   -1.930426 H        1 UNL1     0.0234
     111 H         0.251726   4.014839   -1.926659 H        1 UNL1     0.0234
     112 H         -3.682022   -1.389783   1.347886 H        1 UNL1     0.0342
     113 H         -3.296298   0.242753   1.999255 H        1 UNL1     0.0342
     114 H         -4.451146   0.058941   0.676186 H        1 UNL1     0.0342
     115 H         -2.70899   2.063276   3.19691 H        1 UNL1     0.0234
     116 H         -1.237225   1.997816   4.171799 H        1 UNL1     0.0234
     117 H         -1.636117   3.381697   3.132854 H        1 UNL1     0.0234
     118 H         1.195169   7.642581   -0.813728 H        1 UNL1     0.0309
     119 H         2.510962   7.695566   -2.027789 H        1 UNL1     0.0309
     120 H         1.695889   6.20174   -1.619995 H        1 UNL1     0.0309
     121 H         -0.196432   6.296358   2.771445 H        1 UNL1     0.0524
     122 H         -1.927234   6.165274   2.433806 H        1 UNL1     0.0524
     123 H         -1.255313   5.40637   3.898841 H        1 UNL1     0.0524
@<TRIPOS>BOND
     1     1     2    1
     2     1    42    1
     3     2     3    2
     4     3     4    1
     5     4     5    2
     6     5     7    1
     7     6    75    1
     8     6    76    1
     9     6    77    1
    10     7     9   am
    11     9    10    1
    12    10    11    2
    13    10    43    1
    14    11    14    1
    15    11    15    1
    16    12    13   ar
    17    12    27   ar
    18    12    43    1
    19    13    14    1
    20    13    30   ar
    21    14    17    2
    22    15    16    1
    23    16    17    1
    24    16    18    1
    25    16    22    1
    26    18    19    1
    27    19    20    1
    28    20    21    1
    29    21    22    1
    30    23    24    1
    31    23    88    1
    32    23    89    1
    33    24    25    1
    34    24    26    1
    35    24    90    1
    36    25    91    1
    37    25    92    1
    38    25    93    1
    39    26    94    1
    40    26    95    1
    41    26    96    1
    42    27    28   ar
    43    28    29   ar
    44    29    30   ar
    45    29    31    1
    46    30    33    1
    47    31    32    1
    48    32    33    1
    49    32    35    1
    50    34    97    1
    51    34    98    1
    52    34    99    1
    53    35    61    1
    54    36    37    1
    55    36    60    1
    56    37    38    1
    57    38    39    1
    58    39    40    1
    59    40    41    1
    60    41    42    1
    61    45   100    1
    62    47   101    1
    63    47   102    1
    64    47   103    1
    65    48   104    1
    66    49   105    1
    67    49   106    1
    68    49   107    1
    69    50   108    1
    70    51    59    1
    71    52   109    1
    72    52   110    1
    73    52   111    1
    74    53    54    1
    75    54    55    2
    76    54    56    1
    77    56   112    1
    78    56   113    1
    79    56   114    1
    80    57   115    1
    81    57   116    1
    82    57   117    1
    83    58   118    1
    84    58   119    1
    85    58   120    1
    86    59   121    1
    87    59   122    1
    88    59   123    1
    89    60    61    2
    90     1    47    1
    91     1    62    1
    92     2    63    1
    93     3    64    1
    94     4    65    1
    95     5     6    1
    96     7     8    2
    97     9    78    1
    98    15    79    1
    99    18    80    1
   100    18    81    1
   101    19    82    1
   102    19    83    1
   103    20    23    1
   104    21    84    1
   105    21    85    1
   106    22    86    1
   107    22    87    1
   108    27    45    1
   109    28    34    1
   110    32    58    1
   111    33    46    2
   112    36    51    1
   113    36    66    1
   114    37    52    1
   115    37    67    1
   116    38    53    1
   117    38    68    1
   118    42    48    1
   119    42    72    1
   120    43    44    2
   121    60    73    1
   122    61    74    1
   123    39    69    1
   124    39    57    1
   125    40    70    1
   126    40    50    1
   127    41    71    1
   128    41    49    1
