@<TRIPOS>MOLECULE
*****
 123 128 0 0 0
SMALL
GASTEIGER

@<TRIPOS>ATOM
     1 C         5.006673   1.147918   -1.732198 C.3        1 UNL1     0.0009
     2 C         5.966057   2.10765   -2.995341 C.2        1 UNL1     -0.0787
     3 C         6.796843   2.143699   -4.180475 C.2        1 UNL1     -0.0649
     4 C         7.33727   3.503901   -5.031443 C.2        1 UNL1     -0.0542
     5 C         7.844378   3.973969   -6.267953 C.2        1 UNL1     0.0115
     6 C         8.40508   3.529276   -7.646787 C.3        1 UNL1     -0.0348
     7 C         7.777409   5.545611   -6.588022 C.2        1 UNL1     0.2441
     8 O         8.747477   6.285274   -6.496415 O.2        1 UNL1     -0.2702
     9 N         6.59961   5.966299   -7.229866 N.am        1 UNL1     -0.2772
     10 C         5.633013   6.280076   -6.302205 C.2        1 UNL1     0.1049
     11 C         4.933239   5.266645   -5.825239 C.2        1 UNL1     0.0801
     12 C         5.247613   7.584337   -4.202752 C.ar        1 UNL1     0.0753
     13 C         4.682223   6.388266   -3.656531 C.ar        1 UNL1     0.0305
     14 C         4.387681   5.228744   -4.495462 C.2        1 UNL1     0.0924
     15 N         4.861214   3.992359   -6.246589 N.pl3        1 UNL1     -0.3170
     16 C         3.825205   3.338064   -5.492376 C.3        1 UNL1     0.1275
     17 N         3.780216   4.087522   -4.183174 N.2        1 UNL1     -0.2557
     18 C         2.502099   3.630576   -6.193467 C.3        1 UNL1     0.0016
     19 C         2.607588   3.176087   -7.640499 C.3        1 UNL1     0.0026
     20 N         2.908457   1.751299   -7.662544 N.3        1 UNL1     -0.3018
     21 C         4.132725   1.363433   -6.958913 C.3        1 UNL1     0.0026
     22 C         4.003121   1.825551   -5.506486 C.3        1 UNL1     0.0016
     23 C         2.735528   1.158633   -8.973836 C.3        1 UNL1     0.0012
     24 C         3.349046   -0.249834   -9.013486 C.3        1 UNL1     -0.0339
     25 C         4.613486   -0.288053   -9.887436 C.3        1 UNL1     -0.0615
     26 C         3.630155   -0.735348   -7.602092 C.3        1 UNL1     -0.0615
     27 C         5.413354   8.726083   -3.422326 C.ar        1 UNL1     0.1347
     28 C         5.016285   8.804334   -2.099351 C.ar        1 UNL1     0.0342
     29 C         4.507294   7.599697   -1.569313 C.ar        1 UNL1     0.1435
     30 C         4.368928   6.437491   -2.329151 C.ar        1 UNL1     0.0774
     31 O         3.976546   7.544497   -0.328238 O.3        1 UNL1     -0.4436
     32 C         3.169757   6.357082   -0.33132 C.3        1 UNL1     0.3143
     33 C         3.748566   5.487722   -1.429231 C.2        1 UNL1     0.2504
     34 C         4.930264   10.060173   -1.27742 C.3        1 UNL1     -0.0327
     35 O         3.407154   5.677569   0.907695 O.2        1 UNL1     -0.4528
     36 C         0.187375   3.838542   1.719535 C.3        1 UNL1     0.0854
     37 C         -0.592356   2.768775   0.862131 C.3        1 UNL1     0.0236
     38 C         -0.874241   1.378435   1.609955 C.3        1 UNL1     0.1131
     39 C         0.314172   0.614795   2.321853 C.3        1 UNL1     0.0200
     40 C         1.797036   0.472654   1.571288 C.3        1 UNL1     0.0661
     41 C         2.05914   -0.056399   -0.019 C.3        1 UNL1     0.0091
     42 C         3.351987   0.415037   -1.232134 C.3        1 UNL1     0.0661
     43 C         5.569134   7.597189   -5.651447 C.2        1 UNL1     0.2131
     44 O         5.674164   8.616957   -6.308548 O.2        1 UNL1     -0.2851
     45 O         6.013429   9.833372   -4.018361 O.3        1 UNL1     -0.5056
     46 O         3.722859   4.281265   -1.527485 O.2        1 UNL1     -0.2836
     47 C         5.972415   0.456351   -0.732668 C.3        1 UNL1     -0.0566
     48 O         3.671537   -0.983755   -1.606814 O.3        1 UNL1     -0.3909
     49 C         0.73933   -0.054684   -0.757642 C.3        1 UNL1     -0.0577
     50 O         2.607707   1.597377   1.846122 O.3        1 UNL1     -0.3910
     51 O         0.689214   3.388615   2.957741 O.3        1 UNL1     -0.3753
     52 C         -0.197297   2.834455   -0.649346 C.3        1 UNL1     -0.0564
     53 O         -1.901081   0.5252   0.924452 O.3        1 UNL1     -0.4608
     54 C         -2.465781   -0.610546   1.443226 C.2        1 UNL1     0.3042
     55 O         -3.530253   -0.703839   2.053171 O.2        1 UNL1     -0.2512
     56 C         -1.679694   -1.858112   1.156243 C.3        1 UNL1     0.0332
     57 C         0.297374   1.029578   3.866472 C.3        1 UNL1     -0.0567
     58 C         1.745314   6.79716   -0.742201 C.3        1 UNL1     0.0210
     59 C         2.011638   3.828263   3.263961 C.3        1 UNL1     0.0372
     60 C         1.316077   4.506717   1.016161 C.2        1 UNL1     -0.0208
     61 C         2.555353   4.77445   1.429994 C.2        1 UNL1     0.0882
     62 H         4.703989   2.095384   -1.270243 H        1 UNL1     0.0365
     63 H         5.863562   3.121158   -2.601936 H        1 UNL1     0.0576
     64 H         7.024367   1.238439   -4.747787 H        1 UNL1     0.0615
     65 H         7.136105   4.334711   -4.349701 H        1 UNL1     0.0622
     66 H         -0.552969   4.626407   1.917538 H        1 UNL1     0.0645
     67 H         -1.611887   3.183656   0.778517 H        1 UNL1     0.0362
     68 H         -1.521289   1.736059   2.425403 H        1 UNL1     0.0741
     69 H         0.024614   -0.416705   2.472092 H        1 UNL1     0.0359
     70 H         2.239637   -0.341765   2.176173 H        1 UNL1     0.0600
     71 H         2.206552   -1.139622   0.159483 H        1 UNL1     0.0348
     72 H         3.739974   0.708697   -0.245957 H        1 UNL1     0.0602
     73 H         0.969439   4.896958   0.091606 H        1 UNL1     0.0628
     74 H         3.005081   4.365262   2.335282 H        1 UNL1     0.1022
     75 H         8.424425   4.389873   -8.358147 H        1 UNL1     0.0279
     76 H         9.437814   3.188318   -7.663447 H        1 UNL1     0.0279
     77 H         7.738261   2.829355   -8.171347 H        1 UNL1     0.0279
     78 H         6.236261   5.210933   -7.80734 H        1 UNL1     0.1553
     79 H         5.138721   3.692224   -7.163017 H        1 UNL1     0.1484
     80 H         1.695074   3.10685   -5.66698 H        1 UNL1     0.0317
     81 H         2.263666   4.698684   -6.149364 H        1 UNL1     0.0317
     82 H         3.366427   3.749473   -8.193042 H        1 UNL1     0.0428
     83 H         1.654279   3.395581   -8.12224 H        1 UNL1     0.0428
     84 H         4.293412   0.281476   -6.922046 H        1 UNL1     0.0428
     85 H         5.031544   1.749756   -7.459109 H        1 UNL1     0.0428
     86 H         4.851137   1.41071   -4.99388 H        1 UNL1     0.0317
     87 H         3.1499   1.327841   -5.029626 H        1 UNL1     0.0317
     88 H         1.65887   1.076568   -9.17225 H        1 UNL1     0.0429
     89 H         3.159517   1.797493   -9.759243 H        1 UNL1     0.0429
     90 H         2.615145   -0.949693   -9.430378 H        1 UNL1     0.0308
     91 H         5.518958   -0.335125   -9.275058 H        1 UNL1     0.0233
     92 H         4.591331   -1.147551   -10.561513 H        1 UNL1     0.0233
     93 H         4.706912   0.598864   -10.525782 H        1 UNL1     0.0233
     94 H         4.530685   -1.358824   -7.58948 H        1 UNL1     0.0233
     95 H         3.801902   0.118368   -6.940552 H        1 UNL1     0.0233
     96 H         2.796594   -1.324253   -7.209237 H        1 UNL1     0.0233
     97 H         5.153977   10.946704   -1.863292 H        1 UNL1     0.0280
     98 H         3.924575   10.217569   -0.866236 H        1 UNL1     0.0280
     99 H         5.649924   10.005924   -0.444209 H        1 UNL1     0.0280
     100 H         6.466844   9.647815   -4.821857 H        1 UNL1     0.2922
     101 H         6.882384   0.153601   -1.250313 H        1 UNL1     0.0236
     102 H         5.512254   -0.3725   -0.195788 H        1 UNL1     0.0236
     103 H         6.315592   1.146248   0.056295 H        1 UNL1     0.0236
     104 H         3.567379   -1.534642   -0.806411 H        1 UNL1     0.2098
     105 H         0.597838   0.793742   -1.422446 H        1 UNL1     0.0234
     106 H         0.506883   -0.984356   -1.276877 H        1 UNL1     0.0234
     107 H         -0.0   0.0   0.0 H        1 UNL1     0.0234
     108 H         3.325303   1.30006   2.438091 H        1 UNL1     0.2098
     109 H         -0.233214   1.84778   -1.131938 H        1 UNL1     0.0234
     110 H         -0.803232   3.544764   -1.222102 H        1 UNL1     0.0234
     111 H         0.831749   3.193653   -0.783463 H        1 UNL1     0.0234
     112 H         -2.354631   -2.658126   0.83721 H        1 UNL1     0.0342
     113 H         -0.897869   -1.68867   0.417403 H        1 UNL1     0.0342
     114 H         -1.193469   -2.179153   2.087738 H        1 UNL1     0.0342
     115 H         1.093546   0.527169   4.432938 H        1 UNL1     0.0234
     116 H         0.398743   2.102886   4.039049 H        1 UNL1     0.0234
     117 H         -0.600245   0.681206   4.405784 H        1 UNL1     0.0234
     118 H         0.972678   6.103305   -0.367227 H        1 UNL1     0.0309
     119 H         1.500155   7.814165   -0.420021 H        1 UNL1     0.0309
     120 H         1.596235   6.778614   -1.827345 H        1 UNL1     0.0309
     121 H         1.996456   4.241816   4.271979 H        1 UNL1     0.0524
     122 H         2.740156   3.000476   3.255691 H        1 UNL1     0.0524
     123 H         2.330105   4.585336   2.552967 H        1 UNL1     0.0524
@<TRIPOS>BOND
     1     1     2    1
     2     1    42    1
     3     2     3    2
     4     3     4    1
     5     4     5    2
     6     5     7    1
     7     6    75    1
     8     6    76    1
     9     6    77    1
    10     7     9   am
    11     9    10    1
    12    10    11    2
    13    10    43    1
    14    11    14    1
    15    11    15    1
    16    12    13   ar
    17    12    27   ar
    18    12    43    1
    19    13    14    1
    20    13    30   ar
    21    14    17    2
    22    15    16    1
    23    16    17    1
    24    16    18    1
    25    16    22    1
    26    18    19    1
    27    19    20    1
    28    20    21    1
    29    21    22    1
    30    23    24    1
    31    23    88    1
    32    23    89    1
    33    24    25    1
    34    24    26    1
    35    24    90    1
    36    25    91    1
    37    25    92    1
    38    25    93    1
    39    26    94    1
    40    26    95    1
    41    26    96    1
    42    27    28   ar
    43    28    29   ar
    44    29    30   ar
    45    29    31    1
    46    30    33    1
    47    31    32    1
    48    32    33    1
    49    32    35    1
    50    34    97    1
    51    34    98    1
    52    34    99    1
    53    35    61    1
    54    36    37    1
    55    36    60    1
    56    37    38    1
    57    38    39    1
    58    39    40    1
    59    40    41    1
    60    41    42    1
    61    45   100    1
    62    47   101    1
    63    47   102    1
    64    47   103    1
    65    48   104    1
    66    49   105    1
    67    49   106    1
    68    49   107    1
    69    50   108    1
    70    51    59    1
    71    52   109    1
    72    52   110    1
    73    52   111    1
    74    53    54    1
    75    54    55    2
    76    54    56    1
    77    56   112    1
    78    56   113    1
    79    56   114    1
    80    57   115    1
    81    57   116    1
    82    57   117    1
    83    58   118    1
    84    58   119    1
    85    58   120    1
    86    59   121    1
    87    59   122    1
    88    59   123    1
    89    60    61    2
    90     1    47    1
    91     1    62    1
    92     2    63    1
    93     3    64    1
    94     4    65    1
    95     5     6    1
    96     7     8    2
    97     9    78    1
    98    15    79    1
    99    18    80    1
   100    18    81    1
   101    19    82    1
   102    19    83    1
   103    20    23    1
   104    21    84    1
   105    21    85    1
   106    22    86    1
   107    22    87    1
   108    27    45    1
   109    28    34    1
   110    32    58    1
   111    33    46    2
   112    36    51    1
   113    36    66    1
   114    37    52    1
   115    37    67    1
   116    38    53    1
   117    38    68    1
   118    42    48    1
   119    42    72    1
   120    43    44    2
   121    60    73    1
   122    61    74    1
   123    39    69    1
   124    39    57    1
   125    40    70    1
   126    40    50    1
   127    41    71    1
   128    41    49    1
