@<TRIPOS>MOLECULE
*****
 123 128 0 0 0
SMALL
GASTEIGER

@<TRIPOS>ATOM
     1 C         4.139803   -0.217531   -0.921338 C.3        1 UNL1     0.0009
     2 C         5.30128   1.072017   -1.573317 C.2        1 UNL1     -0.0787
     3 C         5.896756   1.777658   -2.688451 C.2        1 UNL1     -0.0649
     4 C         6.947505   3.104243   -2.638891 C.2        1 UNL1     -0.0542
     5 C         7.478173   4.193119   -3.373616 C.2        1 UNL1     0.0115
     6 C         7.57843   4.823561   -4.789883 C.3        1 UNL1     -0.0348
     7 C         8.175121   5.400877   -2.578271 C.2        1 UNL1     0.2441
     8 O         9.388738   5.531397   -2.496878 O.2        1 UNL1     -0.2702
     9 N         7.304834   6.439485   -2.204044 N.am        1 UNL1     -0.2772
     10 C         6.739774   6.174127   -0.977825 C.2        1 UNL1     0.1049
     11 C         5.684519   5.380002   -0.982832 C.2        1 UNL1     0.0801
     12 C         7.303883   5.473674   1.356373 C.ar        1 UNL1     0.0753
     13 C         6.279741   4.48276   1.222844 C.ar        1 UNL1     0.0305
     14 C         5.348897   4.491386   0.096565 C.2        1 UNL1     0.0924
     15 N         4.933962   4.947251   -2.01041 N.pl3        1 UNL1     -0.3170
     16 C         3.802751   4.246087   -1.463613 C.3        1 UNL1     0.1275
     17 N         4.289759   3.721017   -0.135137 N.2        1 UNL1     -0.2557
     18 C         2.736767   5.289041   -1.141704 C.3        1 UNL1     0.0016
     19 C         2.434346   6.080933   -2.40386 C.3        1 UNL1     0.0026
     20 N         1.972861   5.160766   -3.43408 N.3        1 UNL1     -0.3018
     21 C         2.906483   4.083473   -3.768981 C.3        1 UNL1     0.0026
     22 C         3.192694   3.298248   -2.48781 C.3        1 UNL1     0.0016
     23 C         1.377786   5.837539   -4.569204 C.3        1 UNL1     0.0012
     24 C         0.912754   7.247542   -4.172479 C.3        1 UNL1     -0.0339
     25 C         -0.459037   7.579646   -4.78236 C.3        1 UNL1     -0.0615
     26 C         0.90026   7.385474   -2.659998 C.3        1 UNL1     -0.0615
     27 C         8.108795   5.53129   2.491678 C.ar        1 UNL1     0.1347
     28 C         7.958054   4.680155   3.571907 C.ar        1 UNL1     0.0342
     29 C         6.976087   3.681941   3.397341 C.ar        1 UNL1     0.1435
     30 C         6.186673   3.589452   2.250392 C.ar        1 UNL1     0.0774
     31 O         6.634388   2.84612   4.402155 O.3        1 UNL1     -0.4436
     32 C         5.345459   2.336829   4.027778 C.3        1 UNL1     0.3143
     33 C         5.279465   2.494039   2.522074 C.2        1 UNL1     0.2504
     34 C         8.609368   4.839373   4.91747 C.3        1 UNL1     -0.0327
     35 O         5.347581   0.930139   4.30067 O.2        1 UNL1     -0.4528
     36 C         1.755922   0.025861   5.131548 C.3        1 UNL1     0.0854
     37 C         0.452439   0.226107   4.266472 C.3        1 UNL1     0.0236
     38 C         -0.403662   -1.106549   4.01575 C.3        1 UNL1     0.1131
     39 C         0.31114   -2.407847   3.469899 C.3        1 UNL1     0.0200
     40 C         1.424958   -2.304026   2.232535 C.3        1 UNL1     0.0661
     41 C         1.202956   -1.488789   0.761578 C.3        1 UNL1     0.0091
     42 C         2.410164   -0.616705   -0.309646 C.3        1 UNL1     0.0661
     43 C         7.421465   6.494016   0.285235 C.2        1 UNL1     0.2131
     44 O         7.949912   7.579401   0.444678 O.2        1 UNL1     -0.2851
     45 O         9.112339   6.497406   2.522604 O.3        1 UNL1     -0.5056
     46 O         4.639368   1.846375   1.724164 O.2        1 UNL1     -0.2836
     47 C         4.732717   -1.635934   -1.137132 C.3        1 UNL1     -0.0566
     48 O         1.937755   -1.259535   -1.559732 O.3        1 UNL1     -0.3909
     49 C         -0.010754   -0.593883   0.877956 C.3        1 UNL1     -0.0577
     50 O         2.716504   -2.038868   2.741772 O.3        1 UNL1     -0.3910
     51 O         2.100015   -1.308896   5.427275 O.3        1 UNL1     -0.3753
     52 C         0.652479   1.307059   3.154503 C.3        1 UNL1     -0.0564
     53 O         -1.79043   -0.842542   3.506339 O.3        1 UNL1     -0.4608
     54 C         -2.806494   -1.76059   3.454084 C.2        1 UNL1     0.3042
     55 O         -3.288863   -2.284461   2.450731 O.2        1 UNL1     -0.2512
     56 C         -3.310719   -2.177212   4.806451 C.3        1 UNL1     0.0332
     57 C         0.680646   -3.320004   4.730696 C.3        1 UNL1     -0.0567
     58 C         4.299811   3.275432   4.673669 C.3        1 UNL1     0.0210
     59 C         1.00429   -2.140413   5.806528 C.3        1 UNL1     0.0372
     60 C         2.979299   0.673411   4.584565 C.2        1 UNL1     -0.0208
     61 C         4.22271   0.207059   4.46132 C.2        1 UNL1     0.0882
     62 H         4.409518   0.082576   0.098418 H        1 UNL1     0.0365
     63 H         5.767956   1.412838   -0.646751 H        1 UNL1     0.0576
     64 H         5.571926   1.601753   -3.716386 H        1 UNL1     0.0615
     65 H         7.270446   3.142045   -1.594974 H        1 UNL1     0.0622
     66 H         1.540427   0.540383   6.078583 H        1 UNL1     0.0645
     67 H         -0.221839   0.799223   4.926357 H        1 UNL1     0.0362
     68 H         -0.685614   -1.341983   5.053341 H        1 UNL1     0.0741
     69 H         -0.438811   -3.070451   3.058881 H        1 UNL1     0.0359
     70 H         1.463084   -3.365344   1.920748 H        1 UNL1     0.0600
     71 H         0.804573   -2.315161   0.140806 H        1 UNL1     0.0348
     72 H         3.00219   -1.283135   0.33432 H        1 UNL1     0.0602
     73 H         2.773736   1.69569   4.384721 H        1 UNL1     0.0628
     74 H         4.50488   -0.83834   4.590774 H        1 UNL1     0.1022
     75 H         7.859142   4.049725   -5.544478 H        1 UNL1     0.0279
     76 H         6.660128   5.233047   -5.204747 H        1 UNL1     0.0279
     77 H         8.415959   5.530447   -4.882398 H        1 UNL1     0.0279
     78 H         6.548016   6.512126   -2.880821 H        1 UNL1     0.1553
     79 H         4.916766   5.387723   -2.911865 H        1 UNL1     0.1484
     80 H         1.841594   4.780473   -0.763828 H        1 UNL1     0.0317
     81 H         3.074815   5.961301   -0.345813 H        1 UNL1     0.0317
     82 H         3.310262   6.651432   -2.746227 H        1 UNL1     0.0428
     83 H         1.673345   6.819987   -2.151418 H        1 UNL1     0.0428
     84 H         2.504044   3.361469   -4.486312 H        1 UNL1     0.0428
     85 H         3.814163   4.465859   -4.256028 H        1 UNL1     0.0428
     86 H         3.768711   2.444727   -2.793903 H        1 UNL1     0.0317
     87 H         2.265398   2.854634   -2.105152 H        1 UNL1     0.0317
     88 H         2.14246   5.928968   -5.351643 H        1 UNL1     0.0429
     89 H         0.551522   5.252894   -4.993765 H        1 UNL1     0.0429
     90 H         1.642615   7.981507   -4.534158 H        1 UNL1     0.0308
     91 H         -1.233619   7.636713   -4.011732 H        1 UNL1     0.0233
     92 H         -0.421632   8.52763   -5.324149 H        1 UNL1     0.0233
     93 H         -0.787116   6.8255   -5.507938 H        1 UNL1     0.0233
     94 H         0.022144   6.881458   -2.242008 H        1 UNL1     0.0233
     95 H         1.792177   6.916894   -2.234699 H        1 UNL1     0.0233
     96 H         0.873741   8.435424   -2.355253 H        1 UNL1     0.0233
     97 H         7.898496   5.140449   5.681176 H        1 UNL1     0.0280
     98 H         9.0554   3.90204   5.274846 H        1 UNL1     0.0280
     99 H         9.397831   5.607355   4.857268 H        1 UNL1     0.0280
     100 H         9.752803   6.375071   3.201177 H        1 UNL1     0.2922
     101 H         5.185131   -1.698683   -2.126596 H        1 UNL1     0.0236
     102 H         4.009976   -2.433142   -0.966578 H        1 UNL1     0.0236
     103 H         5.558072   -1.850561   -0.437906 H        1 UNL1     0.0236
     104 H         1.455391   -0.583609   -2.074921 H        1 UNL1     0.2098
     105 H         -0.958898   -1.124804   0.908912 H        1 UNL1     0.0234
     106 H         0.038809   0.138121   1.683959 H        1 UNL1     0.0234
     107 H         0.0   0.0   0.0 H        1 UNL1     0.0234
     108 H         3.331053   -2.666672   2.315204 H        1 UNL1     0.2098
     109 H         -0.298992   1.618919   2.70156 H        1 UNL1     0.0234
     110 H         1.197931   2.189708   3.505441 H        1 UNL1     0.0234
     111 H         1.265501   0.927153   2.326359 H        1 UNL1     0.0234
     112 H         -2.847812   -3.12402   5.100762 H        1 UNL1     0.0342
     113 H         -3.143258   -1.409452   5.560337 H        1 UNL1     0.0342
     114 H         -4.394699   -2.340797   4.733015 H        1 UNL1     0.0342
     115 H         -0.041936   -4.135826   4.87033 H        1 UNL1     0.0234
     116 H         1.675155   -3.767541   4.678627 H        1 UNL1     0.0234
     117 H         0.594951   -2.791905   5.695947 H        1 UNL1     0.0234
     118 H         3.479408   2.714007   5.154029 H        1 UNL1     0.0309
     119 H         4.735066   3.966948   5.402065 H        1 UNL1     0.0309
     120 H         3.781718   3.898267   3.936267 H        1 UNL1     0.0309
     121 H         0.387967   -2.297532   4.921759 H        1 UNL1     0.0524
     122 H         1.334094   -3.130985   6.16154 H        1 UNL1     0.0524
     123 H         0.422094   -1.661437   6.588656 H        1 UNL1     0.0524
@<TRIPOS>BOND
     1     1     2    1
     2     1    42    1
     3     2     3    2
     4     3     4    1
     5     4     5    2
     6     5     7    1
     7     6    75    1
     8     6    76    1
     9     6    77    1
    10     7     9   am
    11     9    10    1
    12    10    11    2
    13    10    43    1
    14    11    14    1
    15    11    15    1
    16    12    13   ar
    17    12    27   ar
    18    12    43    1
    19    13    14    1
    20    13    30   ar
    21    14    17    2
    22    15    16    1
    23    16    17    1
    24    16    18    1
    25    16    22    1
    26    18    19    1
    27    19    20    1
    28    20    21    1
    29    21    22    1
    30    23    24    1
    31    23    88    1
    32    23    89    1
    33    24    25    1
    34    24    26    1
    35    24    90    1
    36    25    91    1
    37    25    92    1
    38    25    93    1
    39    26    94    1
    40    26    95    1
    41    26    96    1
    42    27    28   ar
    43    28    29   ar
    44    29    30   ar
    45    29    31    1
    46    30    33    1
    47    31    32    1
    48    32    33    1
    49    32    35    1
    50    34    97    1
    51    34    98    1
    52    34    99    1
    53    35    61    1
    54    36    37    1
    55    36    60    1
    56    37    38    1
    57    38    39    1
    58    39    40    1
    59    40    41    1
    60    41    42    1
    61    45   100    1
    62    47   101    1
    63    47   102    1
    64    47   103    1
    65    48   104    1
    66    49   105    1
    67    49   106    1
    68    49   107    1
    69    50   108    1
    70    51    59    1
    71    52   109    1
    72    52   110    1
    73    52   111    1
    74    53    54    1
    75    54    55    2
    76    54    56    1
    77    56   112    1
    78    56   113    1
    79    56   114    1
    80    57   115    1
    81    57   116    1
    82    57   117    1
    83    58   118    1
    84    58   119    1
    85    58   120    1
    86    59   121    1
    87    59   122    1
    88    59   123    1
    89    60    61    2
    90     1    47    1
    91     1    62    1
    92     2    63    1
    93     3    64    1
    94     4    65    1
    95     5     6    1
    96     7     8    2
    97     9    78    1
    98    15    79    1
    99    18    80    1
   100    18    81    1
   101    19    82    1
   102    19    83    1
   103    20    23    1
   104    21    84    1
   105    21    85    1
   106    22    86    1
   107    22    87    1
   108    27    45    1
   109    28    34    1
   110    32    58    1
   111    33    46    2
   112    36    51    1
   113    36    66    1
   114    37    52    1
   115    37    67    1
   116    38    53    1
   117    38    68    1
   118    42    48    1
   119    42    72    1
   120    43    44    2
   121    60    73    1
   122    61    74    1
   123    39    69    1
   124    39    57    1
   125    40    70    1
   126    40    50    1
   127    41    71    1
   128    41    49    1
