@<TRIPOS>MOLECULE
*****
 123 128 0 0 0
SMALL
GASTEIGER

@<TRIPOS>ATOM
     1 C         5.157762   1.779503   0.479723 C.3        1 UNL1     0.0009
     2 C         6.58738   2.595041   -0.37358 C.2        1 UNL1     -0.0787
     3 C         7.868122   2.505198   -1.042666 C.2        1 UNL1     -0.0649
     4 C         8.736166   3.746281   -1.799348 C.2        1 UNL1     -0.0542
     5 C         9.752005   4.045929   -2.740285 C.2        1 UNL1     0.0115
     6 C         10.881739   3.428092   -3.609365 C.3        1 UNL1     -0.0348
     7 C         9.836841   5.530284   -3.345663 C.2        1 UNL1     0.2441
     8 O         10.656715   6.356546   -2.969335 O.2        1 UNL1     -0.2702
     9 N         9.082393   5.73378   -4.51423 N.am        1 UNL1     -0.2772
     10 C         7.798175   6.112427   -4.196847 C.2        1 UNL1     0.1049
     11 C         6.959015   5.135662   -3.903652 C.2        1 UNL1     0.0801
     12 C         6.493724   7.709932   -2.78132 C.ar        1 UNL1     0.0753
     13 C         5.742632   6.57705   -2.332935 C.ar        1 UNL1     0.0305
     14 C         5.865789   5.272665   -2.979822 C.2        1 UNL1     0.0924
     15 N         7.089244   3.807593   -4.064279 N.pl3        1 UNL1     -0.3170
     16 C         5.823831   3.200485   -3.747417 C.3        1 UNL1     0.1275
     17 N         5.184187   4.150972   -2.764994 N.2        1 UNL1     -0.2557
     18 C         4.967413   3.255552   -5.008852 C.3        1 UNL1     0.0016
     19 C         5.72352   2.577052   -6.140015 C.3        1 UNL1     0.0026
     20 N         6.002957   1.200257   -5.756117 N.3        1 UNL1     -0.3018
     21 C         6.770435   1.04335   -4.518892 C.3        1 UNL1     0.0026
     22 C         5.990406   1.728141   -3.395276 C.3        1 UNL1     0.0016
     23 C         6.449562   0.384423   -6.867694 C.3        1 UNL1     0.0012
     24 C         5.293135   0.128868   -7.847044 C.3        1 UNL1     -0.0339
     25 C         5.379555   1.053136   -9.072734 C.3        1 UNL1     -0.0615
     26 C         5.267005   -1.334881   -8.251442 C.3        1 UNL1     -0.0615
     27 C         6.282799   8.975878   -2.240016 C.ar        1 UNL1     0.1347
     28 C         5.324591   9.238764   -1.277323 C.ar        1 UNL1     0.0342
     29 C         4.631067   8.099683   -0.816145 C.ar        1 UNL1     0.1435
     30 C         4.856947   6.819462   -1.323325 C.ar        1 UNL1     0.0774
     31 O         3.591596   8.206193   0.040105 O.3        1 UNL1     -0.4436
     32 C         2.877009   6.969169   -0.101345 C.3        1 UNL1     0.3143
     33 C         3.894913   5.982678   -0.636993 C.2        1 UNL1     0.2504
     34 C         4.870648   10.601747   -0.834253 C.3        1 UNL1     -0.0327
     35 O         2.522386   6.529113   1.215411 O.2        1 UNL1     -0.4528
     36 C         -0.709949   4.577746   0.8252 C.3        1 UNL1     0.0854
     37 C         -1.009943   3.316151   -0.072521 C.3        1 UNL1     0.0236
     38 C         -1.600858   2.050796   0.715795 C.3        1 UNL1     0.1131
     39 C         -0.868575   1.523082   2.014852 C.3        1 UNL1     0.0200
     40 C         0.793565   1.387529   2.051636 C.3        1 UNL1     0.0661
     41 C         1.754555   0.625553   0.87967 C.3        1 UNL1     0.0091
     42 C         3.458471   0.998916   0.311629 C.3        1 UNL1     0.0661
     43 C         7.442123   7.508974   -3.904892 C.2        1 UNL1     0.2131
     44 O         7.834736   8.410093   -4.623624 O.2        1 UNL1     -0.2851
     45 O         7.087628   10.01628   -2.69964 O.3        1 UNL1     -0.5056
     46 O         3.918498   4.779146   -0.507354 O.2        1 UNL1     -0.2836
     47 C         5.560397   1.351139   1.916515 C.3        1 UNL1     -0.0566
     48 O         3.915747   -0.409529   0.390981 O.3        1 UNL1     -0.3909
     49 C         0.918606   0.389042   -0.358371 C.3        1 UNL1     -0.0577
     50 O         1.387413   2.608639   2.44401 O.3        1 UNL1     -0.3910
     51 O         -0.829319   4.386083   2.216763 O.3        1 UNL1     -0.3753
     52 C         0.032498   3.163014   -1.227863 C.3        1 UNL1     -0.0564
     53 O         -2.199491   1.008999   -0.183439 O.3        1 UNL1     -0.4608
     54 C         -2.393917   -0.307386   0.144065 C.2        1 UNL1     0.3042
     55 O         -1.806219   -1.285937   -0.31516 O.2        1 UNL1     -0.2512
     56 C         -3.411265   -0.512995   1.230086 C.3        1 UNL1     0.0332
     57 C         -1.590383   2.186588   3.278548 C.3        1 UNL1     -0.0567
     58 C         1.797573   7.208734   -1.182528 C.3        1 UNL1     0.0210
     59 C         -1.147719   5.562518   2.958712 C.3        1 UNL1     0.0372
     60 C         0.614631   5.215042   0.591747 C.2        1 UNL1     -0.0208
     61 C         1.527157   5.655001   1.459202 C.2        1 UNL1     0.0882
     62 H         4.676141   2.760709   0.569101 H        1 UNL1     0.0365
     63 H         6.315055   3.647121   -0.26664 H        1 UNL1     0.0576
     64 H         8.331028   1.541323   -1.265761 H        1 UNL1     0.0615
     65 H         8.244466   4.658414   -1.450454 H        1 UNL1     0.0622
     66 H         -1.459883   5.320044   0.517564 H        1 UNL1     0.0645
     67 H         -1.87891   3.620832   -0.681311 H        1 UNL1     0.0362
     68 H         -2.549637   2.481639   1.070357 H        1 UNL1     0.0741
     69 H         -1.193491   0.50983   2.210192 H        1 UNL1     0.0359
     70 H         0.911587   0.727103   2.931959 H        1 UNL1     0.0600
     71 H         1.805392   -0.395709   1.305578 H        1 UNL1     0.0348
     72 H         3.352169   1.485605   1.292011 H        1 UNL1     0.0602
     73 H         0.728667   5.413917   -0.444927 H        1 UNL1     0.0628
     74 H         1.513635   5.443288   2.52889 H        1 UNL1     0.1022
     75 H         10.91463   2.319483   -3.47922 H        1 UNL1     0.0279
     76 H         10.778133   3.534495   -4.686868 H        1 UNL1     0.0279
     77 H         11.886766   3.716363   -3.268011 H        1 UNL1     0.0279
     78 H         9.024288   4.863938   -5.039659 H        1 UNL1     0.1553
     79 H         7.755491   3.384169   -4.683763 H        1 UNL1     0.1484
     80 H         4.009612   2.758658   -4.812689 H        1 UNL1     0.0317
     81 H         4.733861   4.291159   -5.278339 H        1 UNL1     0.0317
     82 H         6.650321   3.114176   -6.389915 H        1 UNL1     0.0428
     83 H         5.095752   2.629211   -7.030092 H        1 UNL1     0.0428
     84 H         6.897836   0.00087   -4.21097 H        1 UNL1     0.0428
     85 H         7.798019   1.41768   -4.625026 H        1 UNL1     0.0428
     86 H         6.510667   1.480095   -2.488749 H        1 UNL1     0.0317
     87 H         5.014184   1.244495   -3.268098 H        1 UNL1     0.0317
     88 H         7.240983   0.931476   -7.396542 H        1 UNL1     0.0429
     89 H         6.888753   -0.559033   -6.51873 H        1 UNL1     0.0429
     90 H         4.341405   0.315323   -7.33552 H        1 UNL1     0.0308
     91 H         6.334285   0.934494   -9.593808 H        1 UNL1     0.0233
     92 H         4.563027   0.848531   -9.769173 H        1 UNL1     0.0233
     93 H         5.293581   2.11285   -8.80357 H        1 UNL1     0.0233
     94 H         4.610705   -1.475936   -9.117011 H        1 UNL1     0.0233
     95 H         6.27158   -1.662688   -8.533105 H        1 UNL1     0.0233
     96 H         4.904781   -1.967657   -7.436361 H        1 UNL1     0.0233
     97 H         4.073221   10.546635   -0.0992 H        1 UNL1     0.0280
     98 H         5.678773   11.172765   -0.358723 H        1 UNL1     0.0280
     99 H         4.500117   11.168213   -1.704263 H        1 UNL1     0.0280
     100 H         6.616042   10.777085   -2.990165 H        1 UNL1     0.2922
     101 H         4.698319   0.923252   2.427777 H        1 UNL1     0.0236
     102 H         6.018908   2.15537   2.490938 H        1 UNL1     0.0236
     103 H         6.312342   0.544443   1.912745 H        1 UNL1     0.0236
     104 H         4.332918   -0.535361   1.265684 H        1 UNL1     0.2098
     105 H         0.699065   1.287077   -0.930339 H        1 UNL1     0.0234
     106 H         1.291048   -0.396161   -1.016147 H        1 UNL1     0.0234
     107 H         0.0   -0.0   0.0 H        1 UNL1     0.0234
     108 H         1.198141   3.261723   1.742992 H        1 UNL1     0.2098
     109 H         1.060349   3.067791   -0.850811 H        1 UNL1     0.0234
     110 H         -0.189973   2.327544   -1.90035 H        1 UNL1     0.0234
     111 H         0.037907   4.041236   -1.887139 H        1 UNL1     0.0234
     112 H         -3.502855   -1.579482   1.457162 H        1 UNL1     0.0342
     113 H         -3.174668   0.0584   2.126397 H        1 UNL1     0.0342
     114 H         -4.384446   -0.162822   0.859326 H        1 UNL1     0.0342
     115 H         -2.660998   1.941991   3.312357 H        1 UNL1     0.0234
     116 H         -1.157397   1.899076   4.238709 H        1 UNL1     0.0234
     117 H         -1.624841   3.288868   3.2369 H        1 UNL1     0.0234
     118 H         0.892807   7.685589   -0.766579 H        1 UNL1     0.0309
     119 H         2.159901   7.803559   -2.026983 H        1 UNL1     0.0309
     120 H         1.416846   6.274958   -1.610565 H        1 UNL1     0.0309
     121 H         -0.314126   6.255962   2.850942 H        1 UNL1     0.0524
     122 H         -2.050664   6.066848   2.576117 H        1 UNL1     0.0524
     123 H         -1.298068   5.317047   4.006201 H        1 UNL1     0.0524
@<TRIPOS>BOND
     1     1     2    1
     2     1    42    1
     3     2     3    2
     4     3     4    1
     5     4     5    2
     6     5     7    1
     7     6    75    1
     8     6    76    1
     9     6    77    1
    10     7     9   am
    11     9    10    1
    12    10    11    2
    13    10    43    1
    14    11    14    1
    15    11    15    1
    16    12    13   ar
    17    12    27   ar
    18    12    43    1
    19    13    14    1
    20    13    30   ar
    21    14    17    2
    22    15    16    1
    23    16    17    1
    24    16    18    1
    25    16    22    1
    26    18    19    1
    27    19    20    1
    28    20    21    1
    29    21    22    1
    30    23    24    1
    31    23    88    1
    32    23    89    1
    33    24    25    1
    34    24    26    1
    35    24    90    1
    36    25    91    1
    37    25    92    1
    38    25    93    1
    39    26    94    1
    40    26    95    1
    41    26    96    1
    42    27    28   ar
    43    28    29   ar
    44    29    30   ar
    45    29    31    1
    46    30    33    1
    47    31    32    1
    48    32    33    1
    49    32    35    1
    50    34    97    1
    51    34    98    1
    52    34    99    1
    53    35    61    1
    54    36    37    1
    55    36    60    1
    56    37    38    1
    57    38    39    1
    58    39    40    1
    59    40    41    1
    60    41    42    1
    61    45   100    1
    62    47   101    1
    63    47   102    1
    64    47   103    1
    65    48   104    1
    66    49   105    1
    67    49   106    1
    68    49   107    1
    69    50   108    1
    70    51    59    1
    71    52   109    1
    72    52   110    1
    73    52   111    1
    74    53    54    1
    75    54    55    2
    76    54    56    1
    77    56   112    1
    78    56   113    1
    79    56   114    1
    80    57   115    1
    81    57   116    1
    82    57   117    1
    83    58   118    1
    84    58   119    1
    85    58   120    1
    86    59   121    1
    87    59   122    1
    88    59   123    1
    89    60    61    2
    90     1    47    1
    91     1    62    1
    92     2    63    1
    93     3    64    1
    94     4    65    1
    95     5     6    1
    96     7     8    2
    97     9    78    1
    98    15    79    1
    99    18    80    1
   100    18    81    1
   101    19    82    1
   102    19    83    1
   103    20    23    1
   104    21    84    1
   105    21    85    1
   106    22    86    1
   107    22    87    1
   108    27    45    1
   109    28    34    1
   110    32    58    1
   111    33    46    2
   112    36    51    1
   113    36    66    1
   114    37    52    1
   115    37    67    1
   116    38    53    1
   117    38    68    1
   118    42    48    1
   119    42    72    1
   120    43    44    2
   121    60    73    1
   122    61    74    1
   123    39    69    1
   124    39    57    1
   125    40    70    1
   126    40    50    1
   127    41    71    1
   128    41    49    1
