@<TRIPOS>MOLECULE
*****
 123 128 0 0 0
SMALL
GASTEIGER

@<TRIPOS>ATOM
     1 C         -1.23735   3.183289   -4.163601 C.3        1 UNL1     0.0009
     2 C         -2.354255   3.319639   -5.637021 C.2        1 UNL1     -0.0787
     3 C         -2.54532   3.324972   -7.072121 C.2        1 UNL1     -0.0649
     4 C         -4.005277   3.384667   -7.927294 C.2        1 UNL1     -0.0542
     5 C         -4.633549   3.129159   -9.171106 C.2        1 UNL1     0.0115
     6 C         -4.373687   2.766468   -10.659142 C.3        1 UNL1     -0.0348
     7 C         -6.233674   3.011519   -9.223537 C.2        1 UNL1     0.2441
     8 O         -6.954263   3.913226   -9.628755 O.2        1 UNL1     -0.2702
     9 N         -6.735847   1.714344   -9.020281 N.am        1 UNL1     -0.2772
     10 C         -6.925513   1.477674   -7.678142 C.2        1 UNL1     0.1049
     11 C         -5.858597   1.100643   -6.997143 C.2        1 UNL1     0.0801
     12 C         -7.942605   2.460597   -5.614961 C.ar        1 UNL1     0.0753
     13 C         -6.685445   2.219034   -4.974801 C.ar        1 UNL1     0.0305
     14 C         -5.646498   1.410914   -5.609294 C.2        1 UNL1     0.0924
     15 N         -4.65083   0.704067   -7.433668 N.pl3        1 UNL1     -0.3170
     16 C         -3.903682   0.237826   -6.295844 C.3        1 UNL1     0.1275
     17 N         -4.474498   1.005589   -5.128611 N.2        1 UNL1     -0.2557
     18 C         -4.286674   -1.221731   -6.070647 C.3        1 UNL1     0.0016
     19 C         -4.026353   -1.996231   -7.352822 C.3        1 UNL1     0.0026
     20 N         -2.61665   -1.871491   -7.696632 N.3        1 UNL1     -0.3018
     21 C         -2.138861   -0.498553   -7.873061 C.3        1 UNL1     0.0026
     22 C         -2.406049   0.259895   -6.571808 C.3        1 UNL1     0.0016
     23 C         -2.201675   -2.806638   -8.723248 C.3        1 UNL1     0.0012
     24 C         -2.186471   -4.240766   -8.17116 C.3        1 UNL1     -0.0339
     25 C         -3.244139   -4.431301   -7.071574 C.3        1 UNL1     -0.0615
     26 C         -2.371198   -5.236518   -9.303033 C.3        1 UNL1     -0.0615
     27 C         -8.971705   3.12867   -4.955604 C.ar        1 UNL1     0.1347
     28 C         -8.875552   3.5653   -3.646346 C.ar        1 UNL1     0.0342
     29 C         -7.611992   3.35995   -3.052703 C.ar        1 UNL1     0.1435
     30 C         -6.559885   2.72445   -3.713333 C.ar        1 UNL1     0.0774
     31 O         -7.394398   3.63037   -1.747125 O.3        1 UNL1     -0.4436
     32 C         -6.218204   2.87854   -1.412178 C.3        1 UNL1     0.3143
     33 C         -5.50041   2.658647   -2.728473 C.2        1 UNL1     0.2504
     34 C         -10.012453   4.059954   -2.796126 C.3        1 UNL1     -0.0327
     35 O         -5.381512   3.728131   -0.617574 O.2        1 UNL1     -0.4528
     36 C         -3.453704   1.419261   1.697758 C.3        1 UNL1     0.0854
     37 C         -2.506464   0.210804   1.337356 C.3        1 UNL1     0.0236
     38 C         -1.030033   0.301282   1.956801 C.3        1 UNL1     0.1131
     39 C         -0.178668   1.620978   1.76746 C.3        1 UNL1     0.0200
     40 C         -0.135538   2.393876   0.289892 C.3        1 UNL1     0.0661
     41 C         0.179959   1.659938   -1.206573 C.3        1 UNL1     0.0091
     42 C         -0.446106   2.060209   -2.883841 C.3        1 UNL1     0.0661
     43 C         -8.145652   1.897382   -6.972834 C.2        1 UNL1     0.2131
     44 O         -9.242907   1.685866   -7.456599 O.2        1 UNL1     -0.2851
     45 O         -10.147384   3.36338   -5.665624 O.3        1 UNL1     -0.5056
     46 O         -4.317367   2.489556   -2.92256 O.2        1 UNL1     -0.2836
     47 C         -0.419747   4.490654   -3.983866 C.3        1 UNL1     -0.0566
     48 O         0.891466   2.000889   -3.521412 O.3        1 UNL1     -0.3909
     49 C         0.080304   0.159467   -1.044864 C.3        1 UNL1     -0.0577
     50 O         -1.213847   3.299238   0.166229 O.3        1 UNL1     -0.3910
     51 O         -2.844545   2.502072   2.364 O.3        1 UNL1     -0.3753
     52 C         -2.770088   -0.324108   -0.108092 C.3        1 UNL1     -0.0564
     53 O         -0.274993   -0.994539   1.901236 O.3        1 UNL1     -0.4608
     54 C         1.066677   -1.123042   1.65357 C.2        1 UNL1     0.3042
     55 O         1.60209   -1.470016   0.601534 O.2        1 UNL1     -0.2512
     56 C         1.933184   -0.729717   2.81597 C.3        1 UNL1     0.0332
     57 C         -0.38674   2.520665   3.073387 C.3        1 UNL1     -0.0567
     58 C         -6.70938   1.513069   -0.877608 C.3        1 UNL1     0.0210
     59 C         -3.189645   2.628286   3.74271 C.3        1 UNL1     0.0372
     60 C         -4.207868   1.991359   0.549237 C.2        1 UNL1     -0.0208
     61 C         -4.418083   3.261111   0.199545 C.2        1 UNL1     0.0882
     62 H         -2.116029   3.27181   -3.513371 H        1 UNL1     0.0365
     63 H         -3.307291   3.537713   -5.150569 H        1 UNL1     0.0576
     64 H         -1.722382   3.11808   -7.759926 H        1 UNL1     0.0615
     65 H         -4.739346   3.672755   -7.169911 H        1 UNL1     0.0622
     66 H         -4.209151   0.987148   2.369043 H        1 UNL1     0.0645
     67 H         -2.929372   -0.638748   1.901244 H        1 UNL1     0.0362
     68 H         -1.277722   0.265121   3.028652 H        1 UNL1     0.0741
     69 H         0.86345   1.391392   1.94547 H        1 UNL1     0.0359
     70 H         0.751628   3.038918   0.437935 H        1 UNL1     0.0600
     71 H         1.277337   1.799749   -1.262889 H        1 UNL1     0.0348
     72 H         -0.60729   2.962763   -2.276607 H        1 UNL1     0.0602
     73 H         -4.716516   1.20993   0.041405 H        1 UNL1     0.0628
     74 H         -3.893121   4.114371   0.630357 H        1 UNL1     0.1022
     75 H         -3.567334   3.411216   -11.084734 H        1 UNL1     0.0279
     76 H         -4.00048   1.763974   -10.856094 H        1 UNL1     0.0279
     77 H         -5.221265   3.019519   -11.312806 H        1 UNL1     0.0279
     78 H         -6.063205   1.030051   -9.359948 H        1 UNL1     0.1553
     79 H         -4.47364   0.384869   -8.36836 H        1 UNL1     0.1484
     80 H         -3.698766   -1.62083   -5.235273 H        1 UNL1     0.0317
     81 H         -5.339856   -1.310032   -5.783137 H        1 UNL1     0.0317
     82 H         -4.666948   -1.647611   -8.176239 H        1 UNL1     0.0428
     83 H         -4.307885   -3.033828   -7.170665 H        1 UNL1     0.0428
     84 H         -1.061351   -0.42864   -8.051657 H        1 UNL1     0.0428
     85 H         -2.587045   -0.019881   -8.754719 H        1 UNL1     0.0428
     86 H         -1.926873   1.214143   -6.689238 H        1 UNL1     0.0317
     87 H         -1.850486   -0.203317   -5.747259 H        1 UNL1     0.0317
     88 H         -2.927974   -2.756163   -9.544977 H        1 UNL1     0.0429
     89 H         -1.224206   -2.532642   -9.140686 H        1 UNL1     0.0429
     90 H         -1.198248   -4.451266   -7.745345 H        1 UNL1     0.0308
     91 H         -4.208833   -4.010395   -7.370415 H        1 UNL1     0.0233
     92 H         -3.372036   -5.490884   -6.838046 H        1 UNL1     0.0233
     93 H         -2.961544   -3.942854   -6.131151 H        1 UNL1     0.0233
     94 H         -2.744442   -6.188851   -8.911132 H        1 UNL1     0.0233
     95 H         -3.10473   -4.856067   -10.019379 H        1 UNL1     0.0233
     96 H         -1.429949   -5.423736   -9.827407 H        1 UNL1     0.0233
     97 H         -10.132604   3.469423   -1.892761 H        1 UNL1     0.0280
     98 H         -9.859104   5.09408   -2.460981 H        1 UNL1     0.0280
     99 H         -10.952111   4.008493   -3.370137 H        1 UNL1     0.0280
     100 H         -10.021038   3.74072   -6.518427 H        1 UNL1     0.2922
     101 H         -0.829422   5.06969   -3.156497 H        1 UNL1     0.0236
     102 H         -0.345859   5.079082   -4.897801 H        1 UNL1     0.0236
     103 H         0.625073   4.289165   -3.694132 H        1 UNL1     0.0236
     104 H         1.524124   1.678186   -2.850161 H        1 UNL1     0.2098
     105 H         -0.791379   -0.286258   -1.51742 H        1 UNL1     0.0234
     106 H         0.981069   -0.389016   -1.320028 H        1 UNL1     0.0234
     107 H         0.0   -0.0   0.0 H        1 UNL1     0.0234
     108 H         -0.840819   4.201136   0.200824 H        1 UNL1     0.2098
     109 H         -3.797766   -0.692413   -0.23435 H        1 UNL1     0.0234
     110 H         -2.546623   0.412731   -0.887114 H        1 UNL1     0.0234
     111 H         -2.117955   -1.173786   -0.350407 H        1 UNL1     0.0234
     112 H         2.988345   -0.835232   2.546068 H        1 UNL1     0.0342
     113 H         1.717994   0.279377   3.164205 H        1 UNL1     0.0342
     114 H         1.727336   -1.419327   3.646169 H        1 UNL1     0.0342
     115 H         0.188044   3.455585   3.021064 H        1 UNL1     0.0234
     116 H         -1.427737   2.785705   3.268649 H        1 UNL1     0.0234
     117 H         0.027015   2.067188   3.990505 H        1 UNL1     0.0234
     118 H         -6.528511   1.402662   0.205952 H        1 UNL1     0.0309
     119 H         -7.767799   1.32606   -1.084924 H        1 UNL1     0.0309
     120 H         -6.161634   0.66979   -1.312307 H        1 UNL1     0.0309
     121 H         -3.067851   3.675396   4.018539 H        1 UNL1     0.0524
     122 H         -4.239589   2.353502   3.938029 H        1 UNL1     0.0524
     123 H         -2.542472   2.002729   4.350936 H        1 UNL1     0.0524
@<TRIPOS>BOND
     1     1     2    1
     2     1    42    1
     3     2     3    2
     4     3     4    1
     5     4     5    2
     6     5     7    1
     7     6    75    1
     8     6    76    1
     9     6    77    1
    10     7     9   am
    11     9    10    1
    12    10    11    2
    13    10    43    1
    14    11    14    1
    15    11    15    1
    16    12    13   ar
    17    12    27   ar
    18    12    43    1
    19    13    14    1
    20    13    30   ar
    21    14    17    2
    22    15    16    1
    23    16    17    1
    24    16    18    1
    25    16    22    1
    26    18    19    1
    27    19    20    1
    28    20    21    1
    29    21    22    1
    30    23    24    1
    31    23    88    1
    32    23    89    1
    33    24    25    1
    34    24    26    1
    35    24    90    1
    36    25    91    1
    37    25    92    1
    38    25    93    1
    39    26    94    1
    40    26    95    1
    41    26    96    1
    42    27    28   ar
    43    28    29   ar
    44    29    30   ar
    45    29    31    1
    46    30    33    1
    47    31    32    1
    48    32    33    1
    49    32    35    1
    50    34    97    1
    51    34    98    1
    52    34    99    1
    53    35    61    1
    54    36    37    1
    55    36    60    1
    56    37    38    1
    57    38    39    1
    58    39    40    1
    59    40    41    1
    60    41    42    1
    61    45   100    1
    62    47   101    1
    63    47   102    1
    64    47   103    1
    65    48   104    1
    66    49   105    1
    67    49   106    1
    68    49   107    1
    69    50   108    1
    70    51    59    1
    71    52   109    1
    72    52   110    1
    73    52   111    1
    74    53    54    1
    75    54    55    2
    76    54    56    1
    77    56   112    1
    78    56   113    1
    79    56   114    1
    80    57   115    1
    81    57   116    1
    82    57   117    1
    83    58   118    1
    84    58   119    1
    85    58   120    1
    86    59   121    1
    87    59   122    1
    88    59   123    1
    89    60    61    2
    90     1    47    1
    91     1    62    1
    92     2    63    1
    93     3    64    1
    94     4    65    1
    95     5     6    1
    96     7     8    2
    97     9    78    1
    98    15    79    1
    99    18    80    1
   100    18    81    1
   101    19    82    1
   102    19    83    1
   103    20    23    1
   104    21    84    1
   105    21    85    1
   106    22    86    1
   107    22    87    1
   108    27    45    1
   109    28    34    1
   110    32    58    1
   111    33    46    2
   112    36    51    1
   113    36    66    1
   114    37    52    1
   115    37    67    1
   116    38    53    1
   117    38    68    1
   118    42    48    1
   119    42    72    1
   120    43    44    2
   121    60    73    1
   122    61    74    1
   123    39    69    1
   124    39    57    1
   125    40    70    1
   126    40    50    1
   127    41    71    1
   128    41    49    1
