@<TRIPOS>MOLECULE
*****
 123 128 0 0 0
SMALL
GASTEIGER

@<TRIPOS>ATOM
     1 C         4.947658   2.346804   -0.11164 C.3        1 UNL1     0.0009
     2 C         6.145772   3.359852   -1.09921 C.2        1 UNL1     -0.0787
     3 C         7.322406   3.449199   -1.938016 C.2        1 UNL1     -0.0649
     4 C         7.93474   4.814751   -2.729643 C.2        1 UNL1     -0.0542
     5 C         8.769965   5.271433   -3.77889 C.2        1 UNL1     0.0115
     6 C         9.827914   4.827944   -4.826451 C.3        1 UNL1     -0.0348
     7 C         8.606045   6.780394   -4.301533 C.2        1 UNL1     0.2441
     8 O         9.37491   7.679592   -3.990381 O.2        1 UNL1     -0.2702
     9 N         7.677868   6.944937   -5.344396 N.am        1 UNL1     -0.2772
     10 C         6.416962   7.156994   -4.835996 C.2        1 UNL1     0.1049
     11 C         5.739253   6.077176   -4.491137 C.2        1 UNL1     0.0801
     12 C         5.15609   8.528437   -3.166661 C.ar        1 UNL1     0.0753
     13 C         4.603867   7.297265   -2.689299 C.ar        1 UNL1     0.0305
     14 C         4.777606   6.045458   -3.422678 C.2        1 UNL1     0.0924
     15 N         5.990553   4.781607   -4.745843 N.pl3        1 UNL1     -0.3170
     16 C         4.856157   4.017796   -4.298639 C.3        1 UNL1     0.1275
     17 N         4.259877   4.843627   -3.185007 N.2        1 UNL1     -0.2557
     18 C         3.830918   4.027192   -5.428462 C.3        1 UNL1     0.0016
     19 C         4.491184   3.491274   -6.688791 C.3        1 UNL1     0.0026
     20 N         4.970813   2.141155   -6.427711 N.3        1 UNL1     -0.3018
     21 C         5.916307   2.021381   -5.315927 C.3        1 UNL1     0.0026
     22 C         5.230754   2.561077   -4.059487 C.3        1 UNL1     0.0016
     23 C         5.344299   1.432001   -7.635292 C.3        1 UNL1     0.0012
     24 C         4.097333   1.085944   -8.464193 C.3        1 UNL1     -0.0339
     25 C         3.840679   2.134911   -9.558658 C.3        1 UNL1     -0.0615
     26 C         4.230906   -0.309821   -9.047956 C.3        1 UNL1     -0.0615
     27 C         4.885429   9.736439   -2.528234 C.ar        1 UNL1     0.1347
     28 C         4.048284   9.843696   -1.431997 C.ar        1 UNL1     0.0342
     29 C         3.555181   8.612538   -0.950059 C.ar        1 UNL1     0.1435
     30 C         3.846898   7.390637   -1.557577 C.ar        1 UNL1     0.0774
     31 O         2.640327   8.559769   0.042545 O.3        1 UNL1     -0.4436
     32 C         2.052956   7.255106   -0.074605 C.3        1 UNL1     0.3143
     33 C         3.087905   6.418321   -0.799093 C.2        1 UNL1     0.2504
     34 C         3.514095   11.12388   -0.852451 C.3        1 UNL1     -0.0327
     35 O         1.936375   6.719979   1.249517 O.2        1 UNL1     -0.4528
     36 C         -1.08514   4.42348   1.18154 C.3        1 UNL1     0.0854
     37 C         -1.367588   3.175624   0.25926 C.3        1 UNL1     0.0236
     38 C         -1.700118   1.816962   1.04361 C.3        1 UNL1     0.1131
     39 C         -0.739957   1.322477   2.199398 C.3        1 UNL1     0.0200
     40 C         0.915734   1.380368   2.005045 C.3        1 UNL1     0.0661
     41 C         1.781068   0.787305   0.671972 C.3        1 UNL1     0.0091
     42 C         3.337488   1.38126   -0.096259 C.3        1 UNL1     0.0661
     43 C         5.954293   8.488457   -4.417075 C.2        1 UNL1     0.2131
     44 O         6.141344   9.459557   -5.127507 O.2        1 UNL1     -0.2851
     45 O         5.4991   10.882609   -3.029372 O.3        1 UNL1     -0.5056
     46 O         3.261198   5.221283   -0.745022 O.2        1 UNL1     -0.2836
     47 C         5.591789   1.90645   1.230435 C.3        1 UNL1     -0.0566
     48 O         3.953003   0.033701   -0.162141 O.3        1 UNL1     -0.3909
     49 C         0.811212   0.508766   -0.454656 C.3        1 UNL1     -0.0577
     50 O         1.421124   2.644267   2.385657 O.3        1 UNL1     -0.3910
     51 O         -0.986983   4.159025   2.562793 O.3        1 UNL1     -0.3753
     52 C         -0.486526   3.195448   -1.032361 C.3        1 UNL1     -0.0564
     53 O         -2.300763   0.752405   0.172822 O.3        1 UNL1     -0.4608
     54 C         -2.320294   -0.588433   0.455136 C.2        1 UNL1     0.3042
     55 O         -1.706978   -1.482995   -0.125762 O.2        1 UNL1     -0.2512
     56 C         -3.157845   -0.938882   1.651968 C.3        1 UNL1     0.0332
     57 C         -1.346292   1.841773   3.58535 C.3        1 UNL1     -0.0567
     58 C         0.813229   7.413719   -0.985347 C.3        1 UNL1     0.0210
     59 C         -1.355713   5.247017   3.409065 C.3        1 UNL1     0.0372
     60 C         0.115837   5.220531   0.810699 C.2        1 UNL1     -0.0208
     61 C         1.086917   5.725945   1.572477 C.2        1 UNL1     0.0882
     62 H         4.378625   3.260289   0.099209 H        1 UNL1     0.0365
     63 H         5.777388   4.367325   -0.894854 H        1 UNL1     0.0576
     64 H         7.852422   2.556526   -2.27761 H        1 UNL1     0.0615
     65 H         7.399655   5.647269   -2.2648 H        1 UNL1     0.0622
     66 H         -1.947546   5.08582   1.021514 H        1 UNL1     0.0645
     67 H         -2.34127   3.402922   -0.208543 H        1 UNL1     0.0362
     68 H         -2.631448   2.118344   1.546915 H        1 UNL1     0.0741
     69 H         -0.921292   0.270716   2.37639 H        1 UNL1     0.0359
     70 H         1.227401   0.700676   2.821099 H        1 UNL1     0.0600
     71 H         2.00263   -0.238548   1.02622 H        1 UNL1     0.0348
     72 H         3.316626   1.809237   0.916518 H        1 UNL1     0.0602
     73 H         0.061273   5.476128   -0.21835 H        1 UNL1     0.0628
     74 H         1.246421   5.467908   2.619956 H        1 UNL1     0.1022
     75 H         10.021041   3.730845   -4.748292 H        1 UNL1     0.0279
     76 H         9.552975   4.943472   -5.872458 H        1 UNL1     0.0279
     77 H         10.827307   5.239116   -4.621869 H        1 UNL1     0.0279
     78 H         7.642573   6.09787   -5.907697 H        1 UNL1     0.1553
     79 H         6.605983   4.4661   -5.472915 H        1 UNL1     0.1484
     80 H         2.970274   3.413874   -5.135377 H        1 UNL1     0.0317
     81 H         3.449853   5.039171   -5.602645 H        1 UNL1     0.0317
     82 H         5.309396   4.143222   -7.028506 H        1 UNL1     0.0428
     83 H         3.74321   3.508364   -7.482071 H        1 UNL1     0.0428
     84 H         6.19904   0.988527   -5.089905 H        1 UNL1     0.0428
     85 H         6.871652   2.517329   -5.536537 H        1 UNL1     0.0428
     86 H         5.896709   2.336364   -3.247085 H        1 UNL1     0.0317
     87 H         4.340882   1.961746   -3.831393 H        1 UNL1     0.0317
     88 H         5.989186   2.090098   -8.232221 H        1 UNL1     0.0429
     89 H         5.928743   0.532009   -7.40461 H        1 UNL1     0.0429
     90 H         3.224094   1.051355   -7.802023 H        1 UNL1     0.0308
     91 H         4.70135   2.230769   -10.227358 H        1 UNL1     0.0233
     92 H         2.957687   1.872279   -10.14599 H        1 UNL1     0.0233
     93 H         3.647029   3.131806   -9.144489 H        1 UNL1     0.0233
     94 H         3.442334   -0.487078   -9.787259 H        1 UNL1     0.0233
     95 H         5.195564   -0.412979   -9.55269 H        1 UNL1     0.0233
     96 H         4.155113   -1.076088   -8.271387 H        1 UNL1     0.0233
     97 H         2.845371   10.944592   -0.015854 H        1 UNL1     0.0280
     98 H         4.314046   11.768263   -0.465018 H        1 UNL1     0.0280
     99 H         2.957631   11.675927   -1.627491 H        1 UNL1     0.0280
     100 H         4.907306   11.583398   -3.23984 H        1 UNL1     0.2922
     101 H         4.865643   1.348363   1.821119 H        1 UNL1     0.0236
     102 H         6.024444   2.734833   1.790412 H        1 UNL1     0.0236
     103 H         6.427721   1.203555   1.077635 H        1 UNL1     0.0236
     104 H         4.504434   -0.078075   0.636859 H        1 UNL1     0.2098
     105 H         0.416715   1.398997   -0.938053 H        1 UNL1     0.0234
     106 H         1.171823   -0.198332   -1.201581 H        1 UNL1     0.0234
     107 H         0.0   -0.0   0.0 H        1 UNL1     0.0234
     108 H         1.048885   3.303359   1.768564 H        1 UNL1     0.2098
     109 H         0.588201   3.19209   -0.80288 H        1 UNL1     0.0234
     110 H         -0.716348   2.37672   -1.722732 H        1 UNL1     0.0234
     111 H         -0.660625   4.102005   -1.627164 H        1 UNL1     0.0234
     112 H         -3.126494   -2.018929   1.824778 H        1 UNL1     0.0342
     113 H         -2.849911   -0.391742   2.541719 H        1 UNL1     0.0342
     114 H         -4.198884   -0.66262   1.434982 H        1 UNL1     0.0342
     115 H         -2.35402   1.442674   3.765328 H        1 UNL1     0.0234
     116 H         -0.735641   1.596757   4.456626 H        1 UNL1     0.0234
     117 H         -1.541354   2.927892   3.600733 H        1 UNL1     0.0234
     118 H         -0.070028   7.767694   -0.42538 H        1 UNL1     0.0309
     119 H         0.987883   8.079219   -1.836704 H        1 UNL1     0.0309
     120 H         0.478295   6.460673   -1.409172 H        1 UNL1     0.0309
     121 H         -0.667909   6.068138   3.208961 H        1 UNL1     0.0524
     122 H         -2.376004   5.610731   3.202291 H        1 UNL1     0.0524
     123 H         -1.291813   4.950263   4.452113 H        1 UNL1     0.0524
@<TRIPOS>BOND
     1     1     2    1
     2     1    42    1
     3     2     3    2
     4     3     4    1
     5     4     5    2
     6     5     7    1
     7     6    75    1
     8     6    76    1
     9     6    77    1
    10     7     9   am
    11     9    10    1
    12    10    11    2
    13    10    43    1
    14    11    14    1
    15    11    15    1
    16    12    13   ar
    17    12    27   ar
    18    12    43    1
    19    13    14    1
    20    13    30   ar
    21    14    17    2
    22    15    16    1
    23    16    17    1
    24    16    18    1
    25    16    22    1
    26    18    19    1
    27    19    20    1
    28    20    21    1
    29    21    22    1
    30    23    24    1
    31    23    88    1
    32    23    89    1
    33    24    25    1
    34    24    26    1
    35    24    90    1
    36    25    91    1
    37    25    92    1
    38    25    93    1
    39    26    94    1
    40    26    95    1
    41    26    96    1
    42    27    28   ar
    43    28    29   ar
    44    29    30   ar
    45    29    31    1
    46    30    33    1
    47    31    32    1
    48    32    33    1
    49    32    35    1
    50    34    97    1
    51    34    98    1
    52    34    99    1
    53    35    61    1
    54    36    37    1
    55    36    60    1
    56    37    38    1
    57    38    39    1
    58    39    40    1
    59    40    41    1
    60    41    42    1
    61    45   100    1
    62    47   101    1
    63    47   102    1
    64    47   103    1
    65    48   104    1
    66    49   105    1
    67    49   106    1
    68    49   107    1
    69    50   108    1
    70    51    59    1
    71    52   109    1
    72    52   110    1
    73    52   111    1
    74    53    54    1
    75    54    55    2
    76    54    56    1
    77    56   112    1
    78    56   113    1
    79    56   114    1
    80    57   115    1
    81    57   116    1
    82    57   117    1
    83    58   118    1
    84    58   119    1
    85    58   120    1
    86    59   121    1
    87    59   122    1
    88    59   123    1
    89    60    61    2
    90     1    47    1
    91     1    62    1
    92     2    63    1
    93     3    64    1
    94     4    65    1
    95     5     6    1
    96     7     8    2
    97     9    78    1
    98    15    79    1
    99    18    80    1
   100    18    81    1
   101    19    82    1
   102    19    83    1
   103    20    23    1
   104    21    84    1
   105    21    85    1
   106    22    86    1
   107    22    87    1
   108    27    45    1
   109    28    34    1
   110    32    58    1
   111    33    46    2
   112    36    51    1
   113    36    66    1
   114    37    52    1
   115    37    67    1
   116    38    53    1
   117    38    68    1
   118    42    48    1
   119    42    72    1
   120    43    44    2
   121    60    73    1
   122    61    74    1
   123    39    69    1
   124    39    57    1
   125    40    70    1
   126    40    50    1
   127    41    71    1
   128    41    49    1
