@<TRIPOS>MOLECULE
*****
 123 128 0 0 0
SMALL
GASTEIGER

@<TRIPOS>ATOM
     1 C         5.028682   2.070353   0.661625 C.3        1 UNL1     0.0009
     2 C         6.41404   3.016919   -0.126938 C.2        1 UNL1     -0.0787
     3 C         7.711305   3.043356   -0.769161 C.2        1 UNL1     -0.0649
     4 C         8.504502   4.37098   -1.45808 C.2        1 UNL1     -0.0542
     5 C         9.515538   4.77781   -2.363273 C.2        1 UNL1     0.0115
     6 C         10.703688   4.275261   -3.22876 C.3        1 UNL1     -0.0348
     7 C         9.507339   6.287141   -2.909936 C.2        1 UNL1     0.2441
     8 O         10.258776   7.153309   -2.483766 O.2        1 UNL1     -0.2702
     9 N         8.764358   6.483176   -4.087094 N.am        1 UNL1     -0.2772
     10 C         7.450338   6.758212   -3.785382 C.2        1 UNL1     0.1049
     11 C         6.676675   5.714321   -3.548828 C.2        1 UNL1     0.0801
     12 C         6.007406   8.203522   -2.340959 C.ar        1 UNL1     0.0753
     13 C         5.329466   7.004073   -1.953239 C.ar        1 UNL1     0.0305
     14 C         5.557879   5.737988   -2.645992 C.2        1 UNL1     0.0924
     15 N         6.903904   4.405981   -3.756532 N.pl3        1 UNL1     -0.3170
     16 C         5.678479   3.699783   -3.4922 C.3        1 UNL1     0.1275
     17 N         4.95321   4.563751   -2.489569 N.2        1 UNL1     -0.2557
     18 C         4.846213   3.744386   -4.770108 C.3        1 UNL1     0.0016
     19 C         5.671393   3.165535   -5.908351 C.3        1 UNL1     0.0026
     20 N         6.039773   1.797633   -5.570461 N.3        1 UNL1     -0.3018
     21 C         6.791048   1.646247   -4.322648 C.3        1 UNL1     0.0026
     22 C         5.941719   2.229992   -3.19226 C.3        1 UNL1     0.0016
     23 C         6.565622   1.059457   -6.701488 C.3        1 UNL1     0.0012
     24 C         5.450416   0.762335   -7.716274 C.3        1 UNL1     -0.0339
     25 C         5.657864   1.54309   -9.024496 C.3        1 UNL1     -0.0615
     26 C         5.3586   -0.732947   -7.966238 C.3        1 UNL1     -0.0615
     27 C         5.696339   9.429305   -1.757168 C.ar        1 UNL1     0.1347
     28 C         4.702484   9.58637   -0.807625 C.ar        1 UNL1     0.0342
     29 C         4.082133   8.384269   -0.406027 C.ar        1 UNL1     0.1435
     30 C         4.40843   7.14396   -0.955922 C.ar        1 UNL1     0.0774
     31 O         3.020485   8.383965   0.429383 O.3        1 UNL1     -0.4436
     32 C         2.398355   7.106485   0.224754 C.3        1 UNL1     0.3143
     33 C         3.494295   6.21552   -0.324162 C.2        1 UNL1     0.2504
     34 C         4.144189   10.895734   -0.323916 C.3        1 UNL1     -0.0327
     35 O         2.049019   6.59119   1.515369 O.2        1 UNL1     -0.4528
     36 C         -1.028334   4.435233   0.976999 C.3        1 UNL1     0.0854
     37 C         -1.219835   3.192055   0.025495 C.3        1 UNL1     0.0236
     38 C         -1.735581   1.858391   0.751504 C.3        1 UNL1     0.1131
     39 C         -0.994399   1.332497   2.046245 C.3        1 UNL1     0.0200
     40 C         0.672072   1.312279   2.116285 C.3        1 UNL1     0.0661
     41 C         1.708322   0.66617   0.938856 C.3        1 UNL1     0.0091
     42 C         3.392738   1.179959   0.424885 C.3        1 UNL1     0.0661
     43 C         6.990372   8.113832   -3.449107 C.2        1 UNL1     0.2131
     44 O         7.33274   9.067818   -4.123965 O.2        1 UNL1     -0.2851
     45 O         6.43465   10.540777   -2.158374 O.3        1 UNL1     -0.5056
     46 O         3.600428   5.012421   -0.239639 O.2        1 UNL1     -0.2836
     47 C         5.431268   1.614992   2.090105 C.3        1 UNL1     -0.0566
     48 O         3.946924   -0.195053   0.461442 O.3        1 UNL1     -0.3909
     49 C         0.916648   0.420648   -0.326238 C.3        1 UNL1     -0.0577
     50 O         1.1698   2.555566   2.568199 O.3        1 UNL1     -0.3910
     51 O         -1.162178   4.18105   2.357183 O.3        1 UNL1     -0.3753
     52 C         -0.145822   3.157865   -1.110408 C.3        1 UNL1     -0.0564
     53 O         -2.24045   0.813457   -0.200098 O.3        1 UNL1     -0.4608
     54 C         -2.376813   -0.520414   0.08296 C.2        1 UNL1     0.3042
     55 O         -1.679474   -1.446491   -0.329276 O.2        1 UNL1     -0.2512
     56 C         -3.483698   -0.819114   1.053681 C.3        1 UNL1     0.0332
     57 C         -1.787014   1.893587   3.317117 C.3        1 UNL1     -0.0567
     58 C         1.326933   7.312283   -0.871254 C.3        1 UNL1     0.0210
     59 C         -2.353608   4.697021   2.948903 C.3        1 UNL1     0.0372
     60 C         0.252259   5.172378   0.798504 C.2        1 UNL1     -0.0208
     61 C         1.113446   5.64064   1.702845 C.2        1 UNL1     0.0882
     62 H         4.477042   3.011159   0.776906 H        1 UNL1     0.0365
     63 H         6.065747   4.042329   0.013406 H        1 UNL1     0.0576
     64 H         8.245781   2.12378   -1.017803 H        1 UNL1     0.0615
     65 H         7.942411   5.232014   -1.086385 H        1 UNL1     0.0622
     66 H         -1.822537   5.134751   0.680414 H        1 UNL1     0.0645
     67 H         -2.095607   3.458894   -0.591255 H        1 UNL1     0.0362
     68 H         -2.71953   2.207472   1.100087 H        1 UNL1     0.0741
     69 H         -1.250637   0.292084   2.195547 H        1 UNL1     0.0359
     70 H         0.818604   0.627591   2.973484 H        1 UNL1     0.0600
     71 H         1.822681   -0.365002   1.326882 H        1 UNL1     0.0348
     72 H         3.232257   1.61904   1.420259 H        1 UNL1     0.0602
     73 H         0.373037   5.419405   -0.22699 H        1 UNL1     0.0628
     74 H         1.093146   5.386553   2.763158 H        1 UNL1     0.1022
     75 H         11.505694   3.845104   -2.581624 H        1 UNL1     0.0279
     76 H         10.492629   3.457949   -3.914708 H        1 UNL1     0.0279
     77 H         11.243072   5.094079   -3.727059 H        1 UNL1     0.0279
     78 H         8.778743   5.632761   -4.646259 H        1 UNL1     0.1553
     79 H         7.610966   4.054947   -4.376026 H        1 UNL1     0.1484
     80 H         3.922217   3.174331   -4.615076 H        1 UNL1     0.0317
     81 H         4.545432   4.770909   -5.005548 H        1 UNL1     0.0317
     82 H         6.56272   3.775636   -6.116261 H        1 UNL1     0.0428
     83 H         5.059789   3.208625   -6.810091 H        1 UNL1     0.0428
     84 H         6.985671   0.60393   -4.051525 H        1 UNL1     0.0428
     85 H         7.791483   2.095475   -4.390764 H        1 UNL1     0.0428
     86 H         6.459649   1.983476   -2.283983 H        1 UNL1     0.0317
     87 H         4.99982   1.674569   -3.10607 H        1 UNL1     0.0317
     88 H         7.326922   1.68096   -7.190825 H        1 UNL1     0.0429
     89 H         7.063335   0.136053   -6.378409 H        1 UNL1     0.0429
     90 H         4.485372   1.053731   -7.285004 H        1 UNL1     0.0308
     91 H         6.694325   1.474885   -9.368295 H        1 UNL1     0.0233
     92 H         4.994833   1.167874   -9.807574 H        1 UNL1     0.0233
     93 H         5.428588   2.609987   -8.914955 H        1 UNL1     0.0233
     94 H         4.871924   -0.925861   -8.928406 H        1 UNL1     0.0233
     95 H         6.361294   -1.167985   -8.002402 H        1 UNL1     0.0233
     96 H         4.784448   -1.234127   -7.181931 H        1 UNL1     0.0233
     97 H         3.073606   10.968634   -0.490554 H        1 UNL1     0.0280
     98 H         4.290509   11.034607   0.755232 H        1 UNL1     0.0280
     99 H         4.634411   11.725904   -0.858326 H        1 UNL1     0.0280
     100 H         5.917001   11.291444   -2.391098 H        1 UNL1     0.2922
     101 H         4.627281   1.023602   2.527733 H        1 UNL1     0.0236
     102 H         5.729319   2.440829   2.735195 H        1 UNL1     0.0236
     103 H         6.302186   0.938551   2.079085 H        1 UNL1     0.0236
     104 H         4.280757   -0.354562   1.365922 H        1 UNL1     0.2098
     105 H         0.687147   1.318942   -0.893873 H        1 UNL1     0.0234
     106 H         1.331709   -0.344759   -0.981833 H        1 UNL1     0.0234
     107 H         0.0   -0.0   0.0 H        1 UNL1     0.0234
     108 H         1.071544   3.191672   1.833703 H        1 UNL1     0.2098
     109 H         -0.193424   4.046811   -1.754786 H        1 UNL1     0.0234
     110 H         0.875071   3.032527   -0.733829 H        1 UNL1     0.0234
     111 H         -0.29052   2.298393   -1.778477 H        1 UNL1     0.0234
     112 H         -4.05657   -1.685641   0.709744 H        1 UNL1     0.0342
     113 H         -3.110826   -0.973684   2.065076 H        1 UNL1     0.0342
     114 H         -4.161788   0.045061   1.077347 H        1 UNL1     0.0342
     115 H         -2.859938   1.662991   3.263751 H        1 UNL1     0.0234
     116 H         -1.417298   1.51672   4.2728 H        1 UNL1     0.0234
     117 H         -1.808334   2.995673   3.370894 H        1 UNL1     0.0234
     118 H         0.301801   7.231522   -0.469275 H        1 UNL1     0.0309
     119 H         1.430392   8.265336   -1.399636 H        1 UNL1     0.0309
     120 H         1.358343   6.533696   -1.641267 H        1 UNL1     0.0309
     121 H         -2.151859   4.861062   4.007083 H        1 UNL1     0.0524
     122 H         -2.651362   5.66551   2.513692 H        1 UNL1     0.0524
     123 H         -3.169764   3.990349   2.828076 H        1 UNL1     0.0524
@<TRIPOS>BOND
     1     1     2    1
     2     1    42    1
     3     2     3    2
     4     3     4    1
     5     4     5    2
     6     5     7    1
     7     6    75    1
     8     6    76    1
     9     6    77    1
    10     7     9   am
    11     9    10    1
    12    10    11    2
    13    10    43    1
    14    11    14    1
    15    11    15    1
    16    12    13   ar
    17    12    27   ar
    18    12    43    1
    19    13    14    1
    20    13    30   ar
    21    14    17    2
    22    15    16    1
    23    16    17    1
    24    16    18    1
    25    16    22    1
    26    18    19    1
    27    19    20    1
    28    20    21    1
    29    21    22    1
    30    23    24    1
    31    23    88    1
    32    23    89    1
    33    24    25    1
    34    24    26    1
    35    24    90    1
    36    25    91    1
    37    25    92    1
    38    25    93    1
    39    26    94    1
    40    26    95    1
    41    26    96    1
    42    27    28   ar
    43    28    29   ar
    44    29    30   ar
    45    29    31    1
    46    30    33    1
    47    31    32    1
    48    32    33    1
    49    32    35    1
    50    34    97    1
    51    34    98    1
    52    34    99    1
    53    35    61    1
    54    36    37    1
    55    36    60    1
    56    37    38    1
    57    38    39    1
    58    39    40    1
    59    40    41    1
    60    41    42    1
    61    45   100    1
    62    47   101    1
    63    47   102    1
    64    47   103    1
    65    48   104    1
    66    49   105    1
    67    49   106    1
    68    49   107    1
    69    50   108    1
    70    51    59    1
    71    52   109    1
    72    52   110    1
    73    52   111    1
    74    53    54    1
    75    54    55    2
    76    54    56    1
    77    56   112    1
    78    56   113    1
    79    56   114    1
    80    57   115    1
    81    57   116    1
    82    57   117    1
    83    58   118    1
    84    58   119    1
    85    58   120    1
    86    59   121    1
    87    59   122    1
    88    59   123    1
    89    60    61    2
    90     1    47    1
    91     1    62    1
    92     2    63    1
    93     3    64    1
    94     4    65    1
    95     5     6    1
    96     7     8    2
    97     9    78    1
    98    15    79    1
    99    18    80    1
   100    18    81    1
   101    19    82    1
   102    19    83    1
   103    20    23    1
   104    21    84    1
   105    21    85    1
   106    22    86    1
   107    22    87    1
   108    27    45    1
   109    28    34    1
   110    32    58    1
   111    33    46    2
   112    36    51    1
   113    36    66    1
   114    37    52    1
   115    37    67    1
   116    38    53    1
   117    38    68    1
   118    42    48    1
   119    42    72    1
   120    43    44    2
   121    60    73    1
   122    61    74    1
   123    39    69    1
   124    39    57    1
   125    40    70    1
   126    40    50    1
   127    41    71    1
   128    41    49    1
