@<TRIPOS>MOLECULE
*****
 123 128 0 0 0
SMALL
GASTEIGER

@<TRIPOS>ATOM
     1 C         4.972548   2.237514   0.528202 C.3        1 UNL1     0.0009
     2 C         6.360235   3.113467   -0.334392 C.2        1 UNL1     -0.0787
     3 C         7.67257   3.091177   -0.945396 C.2        1 UNL1     -0.0649
     4 C         8.459087   4.344942   -1.76748 C.2        1 UNL1     -0.0542
     5 C         9.485172   4.663596   -2.69089 C.2        1 UNL1     0.0115
     6 C         10.703478   4.087652   -3.463769 C.3        1 UNL1     -0.0348
     7 C         9.46386   6.097919   -3.411481 C.2        1 UNL1     0.2441
     8 O         10.1888   7.023405   -3.073156 O.2        1 UNL1     -0.2702
     9 N         8.747357   6.139192   -4.620229 N.am        1 UNL1     -0.2772
     10 C         7.421475   6.420536   -4.383153 C.2        1 UNL1     0.1049
     11 C         6.660812   5.395844   -4.043123 C.2        1 UNL1     0.0801
     12 C         5.91716   7.995165   -3.152335 C.ar        1 UNL1     0.0753
     13 C         5.251141   6.835723   -2.641726 C.ar        1 UNL1     0.0305
     14 C         5.519413   5.502124   -3.175201 C.2        1 UNL1     0.0924
     15 N         6.91645   4.077144   -4.090103 N.pl3        1 UNL1     -0.3170
     16 C         5.697529   3.381678   -3.772593 C.3        1 UNL1     0.1275
     17 N         4.932   4.342104   -2.895511 N.2        1 UNL1     -0.2557
     18 C         4.897014   3.25894   -5.065579 C.3        1 UNL1     0.0016
     19 C         5.760742   2.567762   -6.108573 C.3        1 UNL1     0.0026
     20 N         6.144798   1.256814   -5.603653 N.3        1 UNL1     -0.3018
     21 C         6.867019   1.268328   -4.329826 C.3        1 UNL1     0.0026
     22 C         5.979264   1.962945   -3.29576 C.3        1 UNL1     0.0016
     23 C         6.711992   0.402113   -6.627577 C.3        1 UNL1     0.0012
     24 C         5.628135   -0.034903   -7.625588 C.3        1 UNL1     -0.0339
     25 C         5.885894   -1.457648   -8.148477 C.3        1 UNL1     -0.0615
     26 C         4.254565   0.086353   -6.988892 C.3        1 UNL1     -0.0615
     27 C         5.569732   9.274265   -2.724183 C.ar        1 UNL1     0.1347
     28 C         4.549665   9.521049   -1.822734 C.ar        1 UNL1     0.0342
     29 C         3.940905   8.361789   -1.296718 C.ar        1 UNL1     0.1435
     30 C         4.302962   7.072555   -1.68916 C.ar        1 UNL1     0.0774
     31 O         2.85875   8.437542   -0.491604 O.3        1 UNL1     -0.4436
     32 C         2.264806   7.132316   -0.558606 C.3        1 UNL1     0.3143
     33 C         3.389896   6.205937   -0.973584 C.2        1 UNL1     0.2504
     34 C         3.956156   10.866298   -1.509442 C.3        1 UNL1     -0.0327
     35 O         1.89234   6.764817   0.77536 O.2        1 UNL1     -0.4528
     36 C         -1.131625   4.497563   0.424241 C.3        1 UNL1     0.0854
     37 C         -1.276967   3.147702   -0.378425 C.3        1 UNL1     0.0236
     38 C         -1.78699   1.898015   0.487544 C.3        1 UNL1     0.1131
     39 C         -1.06937   1.54298   1.851817 C.3        1 UNL1     0.0200
     40 C         0.594906   1.565507   1.961878 C.3        1 UNL1     0.0661
     41 C         1.671788   0.807311   0.892733 C.3        1 UNL1     0.0091
     42 C         3.359188   1.291935   0.360543 C.3        1 UNL1     0.0661
     43 C         6.929135   7.796453   -4.219424 C.2        1 UNL1     0.2131
     44 O         7.271334   8.671582   -4.993882 O.2        1 UNL1     -0.2851
     45 O         6.297999   10.34602   -3.236441 O.3        1 UNL1     -0.5056
     46 O         3.51527   5.023498   -0.745607 O.2        1 UNL1     -0.2836
     47 C         5.347111   1.961206   2.009194 C.3        1 UNL1     -0.0566
     48 O         3.93667   -0.057573   0.571396 O.3        1 UNL1     -0.3909
     49 C         0.916688   0.398851   -0.352449 C.3        1 UNL1     -0.0577
     50 O         1.058896   2.863214   2.275558 O.3        1 UNL1     -0.3910
     51 O         -1.295603   4.404269   1.821323 O.3        1 UNL1     -0.3753
     52 C         -0.174278   3.00272   -1.47752 C.3        1 UNL1     -0.0564
     53 O         -2.249076   0.738509   -0.345733 O.3        1 UNL1     -0.4608
     54 C         -2.537846   -0.515038   0.126666 C.2        1 UNL1     0.3042
     55 O         -1.837213   -1.523242   0.046181 O.2        1 UNL1     -0.2512
     56 C         -3.844129   -0.593568   0.864346 C.3        1 UNL1     0.0332
     57 C         -1.90357   2.232747   3.029318 C.3        1 UNL1     -0.0567
     58 C         1.217803   7.186021   -1.695457 C.3        1 UNL1     0.0210
     59 C         -2.510034   4.962359   2.320882 C.3        1 UNL1     0.0372
     60 C         0.139727   5.23496   0.189569 C.2        1 UNL1     -0.0208
     61 C         0.969418   5.823707   1.051969 C.2        1 UNL1     0.0882
     62 H         4.401521   3.173762   0.519267 H        1 UNL1     0.0365
     63 H         5.990322   4.140852   -0.32375 H        1 UNL1     0.0576
     64 H         8.229418   2.160015   -1.071752 H        1 UNL1     0.0615
     65 H         7.872583   5.231837   -1.5127 H        1 UNL1     0.0622
     66 H         -1.930443   5.140938   0.029266 H        1 UNL1     0.0645
     67 H         -2.141557   3.322249   -1.042185 H        1 UNL1     0.0362
     68 H         -2.785455   2.265184   0.769991 H        1 UNL1     0.0741
     69 H         -1.310721   0.522188   2.116658 H        1 UNL1     0.0359
     70 H         0.731993   0.98923   2.89685 H        1 UNL1     0.0600
     71 H         1.794688   -0.168666   1.40197 H        1 UNL1     0.0348
     72 H         3.165925   1.8413   1.293369 H        1 UNL1     0.0602
     73 H         0.281849   5.36247   -0.854841 H        1 UNL1     0.0628
     74 H         0.926975   5.695342   2.134078 H        1 UNL1     0.1022
     75 H         11.496481   3.752988   -2.752305 H        1 UNL1     0.0279
     76 H         10.524327   3.191363   -4.053379 H        1 UNL1     0.0279
     77 H         11.240565   4.853344   -4.04252 H        1 UNL1     0.0279
     78 H         8.790942   5.229554   -5.074913 H        1 UNL1     0.1553
     79 H         7.64501   3.670555   -4.647614 H        1 UNL1     0.1484
     80 H         3.979705   2.692052   -4.865708 H        1 UNL1     0.0317
     81 H         4.584024   4.244346   -5.427053 H        1 UNL1     0.0317
     82 H         6.646015   3.167536   -6.366402 H        1 UNL1     0.0428
     83 H         5.171347   2.492185   -7.022877 H        1 UNL1     0.0428
     84 H         7.073285   0.269234   -3.933498 H        1 UNL1     0.0428
     85 H         7.860696   1.727018   -4.427434 H        1 UNL1     0.0428
     86 H         6.478486   1.835377   -2.353162 H        1 UNL1     0.0317
     87 H         5.045532   1.402143   -3.166367 H        1 UNL1     0.0317
     88 H         7.474177   0.977525   -7.169121 H        1 UNL1     0.0429
     89 H         7.21778   -0.466567   -6.186729 H        1 UNL1     0.0429
     90 H         5.625255   0.655103   -8.477701 H        1 UNL1     0.0308
     91 H         6.136803   -2.141923   -7.332441 H        1 UNL1     0.0233
     92 H         5.010394   -1.838551   -8.679535 H        1 UNL1     0.0233
     93 H         6.717326   -1.495854   -8.862687 H        1 UNL1     0.0233
     94 H         3.539077   -0.560266   -7.508312 H        1 UNL1     0.0233
     95 H         4.298141   -0.230789   -5.943194 H        1 UNL1     0.0233
     96 H         3.884689   1.114656   -7.030773 H        1 UNL1     0.0233
     97 H         3.088902   10.787919   -0.86063 H        1 UNL1     0.0280
     98 H         4.665672   11.519689   -0.985111 H        1 UNL1     0.0280
     99 H         3.644457   11.359062   -2.444922 H        1 UNL1     0.0280
     100 H         5.773087   11.053376   -3.567707 H        1 UNL1     0.2922
     101 H         4.442492   1.78247   2.590033 H        1 UNL1     0.0236
     102 H         5.966881   2.74268   2.447563 H        1 UNL1     0.0236
     103 H         5.938773   1.03732   2.121288 H        1 UNL1     0.0236
     104 H         3.852507   -0.549022   -0.26906 H        1 UNL1     0.2098
     105 H         0.685092   1.219542   -1.02672 H        1 UNL1     0.0234
     106 H         1.361977   -0.429052   -0.90401 H        1 UNL1     0.0234
     107 H         0.0   -0.0   0.0 H        1 UNL1     0.0234
     108 H         2.031454   2.813614   2.349315 H        1 UNL1     0.2098
     109 H         -0.221472   3.808799   -2.222987 H        1 UNL1     0.0234
     110 H         0.838887   2.943499   -1.065534 H        1 UNL1     0.0234
     111 H         -0.2868   2.068037   -2.042897 H        1 UNL1     0.0234
     112 H         -4.003495   -1.611935   1.231603 H        1 UNL1     0.0342
     113 H         -3.899083   0.128231   1.677875 H        1 UNL1     0.0342
     114 H         -4.652041   -0.360284   0.157225 H        1 UNL1     0.0342
     115 H         -1.362432   2.202641   3.985065 H        1 UNL1     0.0234
     116 H         -2.168606   3.273865   2.834695 H        1 UNL1     0.0234
     117 H         -2.827808   1.68915   3.29052 H        1 UNL1     0.0234
     118 H         0.184917   7.217748   -1.306681 H        1 UNL1     0.0309
     119 H         1.369033   8.027165   -2.379422 H        1 UNL1     0.0309
     120 H         1.225977   6.284224   -2.317392 H        1 UNL1     0.0309
     121 H         -2.337614   5.253229   3.35675 H        1 UNL1     0.0524
     122 H         -2.813197   5.867096   1.768089 H        1 UNL1     0.0524
     123 H         -3.310811   4.230393   2.26541 H        1 UNL1     0.0524
@<TRIPOS>BOND
     1     1     2    1
     2     1    42    1
     3     2     3    2
     4     3     4    1
     5     4     5    2
     6     5     7    1
     7     6    75    1
     8     6    76    1
     9     6    77    1
    10     7     9   am
    11     9    10    1
    12    10    11    2
    13    10    43    1
    14    11    14    1
    15    11    15    1
    16    12    13   ar
    17    12    27   ar
    18    12    43    1
    19    13    14    1
    20    13    30   ar
    21    14    17    2
    22    15    16    1
    23    16    17    1
    24    16    18    1
    25    16    22    1
    26    18    19    1
    27    19    20    1
    28    20    21    1
    29    21    22    1
    30    23    24    1
    31    23    88    1
    32    23    89    1
    33    24    25    1
    34    24    26    1
    35    24    90    1
    36    25    91    1
    37    25    92    1
    38    25    93    1
    39    26    94    1
    40    26    95    1
    41    26    96    1
    42    27    28   ar
    43    28    29   ar
    44    29    30   ar
    45    29    31    1
    46    30    33    1
    47    31    32    1
    48    32    33    1
    49    32    35    1
    50    34    97    1
    51    34    98    1
    52    34    99    1
    53    35    61    1
    54    36    37    1
    55    36    60    1
    56    37    38    1
    57    38    39    1
    58    39    40    1
    59    40    41    1
    60    41    42    1
    61    45   100    1
    62    47   101    1
    63    47   102    1
    64    47   103    1
    65    48   104    1
    66    49   105    1
    67    49   106    1
    68    49   107    1
    69    50   108    1
    70    51    59    1
    71    52   109    1
    72    52   110    1
    73    52   111    1
    74    53    54    1
    75    54    55    2
    76    54    56    1
    77    56   112    1
    78    56   113    1
    79    56   114    1
    80    57   115    1
    81    57   116    1
    82    57   117    1
    83    58   118    1
    84    58   119    1
    85    58   120    1
    86    59   121    1
    87    59   122    1
    88    59   123    1
    89    60    61    2
    90     1    47    1
    91     1    62    1
    92     2    63    1
    93     3    64    1
    94     4    65    1
    95     5     6    1
    96     7     8    2
    97     9    78    1
    98    15    79    1
    99    18    80    1
   100    18    81    1
   101    19    82    1
   102    19    83    1
   103    20    23    1
   104    21    84    1
   105    21    85    1
   106    22    86    1
   107    22    87    1
   108    27    45    1
   109    28    34    1
   110    32    58    1
   111    33    46    2
   112    36    51    1
   113    36    66    1
   114    37    52    1
   115    37    67    1
   116    38    53    1
   117    38    68    1
   118    42    48    1
   119    42    72    1
   120    43    44    2
   121    60    73    1
   122    61    74    1
   123    39    69    1
   124    39    57    1
   125    40    70    1
   126    40    50    1
   127    41    71    1
   128    41    49    1
