@<TRIPOS>MOLECULE
*****
 123 128 0 0 0
SMALL
GASTEIGER

@<TRIPOS>ATOM
     1 C         0.683929   3.205846   4.388843 C.3        1 UNL1     0.0009
     2 C         -0.124436   4.401731   5.552218 C.2        1 UNL1     -0.0787
     3 C         -0.347065   5.759136   6.003807 C.2        1 UNL1     -0.0649
     4 C         -1.41959   6.295476   7.198959 C.2        1 UNL1     -0.0542
     5 C         -2.126807   7.412686   7.707647 C.2        1 UNL1     0.0115
     6 C         -2.2766   8.955842   7.609901 C.3        1 UNL1     -0.0348
     7 C         -3.373642   7.162464   8.687331 C.2        1 UNL1     0.2441
     8 O         -3.305357   7.303413   9.900589 O.2        1 UNL1     -0.2702
     9 N         -4.613587   7.025376   8.039338 N.am        1 UNL1     -0.2772
     10 C         -4.831619   5.711743   7.692707 C.2        1 UNL1     0.1049
     11 C         -4.272473   5.306318   6.567004 C.2        1 UNL1     0.0801
     12 C         -4.773012   3.383465   8.605407 C.ar        1 UNL1     0.0753
     13 C         -3.985398   3.038621   7.461137 C.ar        1 UNL1     0.0305
     14 C         -3.821555   3.960171   6.339107 C.2        1 UNL1     0.0924
     15 N         -3.692356   6.017978   5.585407 N.pl3        1 UNL1     -0.3170
     16 C         -3.398862   5.116146   4.503366 C.3        1 UNL1     0.1275
     17 N         -3.217572   3.773787   5.168897 N.2        1 UNL1     -0.2557
     18 C         -4.661906   5.001219   3.655301 C.3        1 UNL1     0.0016
     19 C         -5.080511   6.394939   3.214955 C.3        1 UNL1     0.0026
     20 N         -3.991371   6.992096   2.454557 N.3        1 UNL1     -0.3018
     21 C         -2.715694   7.088957   3.167042 C.3        1 UNL1     0.0026
     22 C         -2.311899   5.677302   3.596083 C.3        1 UNL1     0.0016
     23 C         -4.391876   8.18755   1.739623 C.3        1 UNL1     0.0012
     24 C         -3.696315   8.255038   0.370902 C.3        1 UNL1     -0.0339
     25 C         -4.513917   9.081617   -0.635254 C.3        1 UNL1     -0.0615
     26 C         -2.28777   8.80077   0.528879 C.3        1 UNL1     -0.0615
     27 C         -5.023977   2.456914   9.614684 C.ar        1 UNL1     0.1347
     28 C         -4.575697   1.148773   9.571544 C.ar        1 UNL1     0.0342
     29 C         -3.761493   0.845975   8.459541 C.ar        1 UNL1     0.1435
     30 C         -3.471602   1.774294   7.458838 C.ar        1 UNL1     0.0774
     31 O         -3.338849   -0.414168   8.217842 O.3        1 UNL1     -0.4436
     32 C         -2.977703   -0.415332   6.828437 C.3        1 UNL1     0.3143
     33 C         -2.68648   1.033561   6.49361 C.2        1 UNL1     0.2504
     34 C         -5.012023   0.036669   10.484201 C.3        1 UNL1     -0.0327
     35 O         -1.739975   -1.127655   6.710628 O.2        1 UNL1     -0.4528
     36 C         -1.776899   -2.714966   3.26285 C.3        1 UNL1     0.0854
     37 C         -1.936864   -2.028807   1.85178 C.3        1 UNL1     0.0236
     38 C         -0.763999   -2.351116   0.806673 C.3        1 UNL1     0.1131
     39 C         0.746036   -2.16144   1.23805 C.3        1 UNL1     0.0200
     40 C         1.216085   -0.811006   2.097015 C.3        1 UNL1     0.0661
     41 C         0.852286   0.797022   1.697635 C.3        1 UNL1     0.0091
     42 C         0.568837   2.25552   2.773666 C.3        1 UNL1     0.0661
     43 C         -5.388541   4.733381   8.638752 C.2        1 UNL1     0.2131
     44 O         -6.360303   5.013437   9.316973 O.2        1 UNL1     -0.2851
     45 O         -5.761302   2.886623   10.71611 O.3        1 UNL1     -0.5056
     46 O         -1.953971   1.47655   5.637429 O.2        1 UNL1     -0.2836
     47 C         2.183461   3.031422   4.75073 C.3        1 UNL1     -0.0566
     48 O         1.461757   3.14681   1.9943 O.3        1 UNL1     -0.3909
     49 C         -0.236645   0.804781   0.648033 C.3        1 UNL1     -0.0577
     50 O         1.043978   -1.01492   3.485007 O.3        1 UNL1     -0.3910
     51 O         -0.552864   -3.376044   3.4912 O.3        1 UNL1     -0.3753
     52 C         -2.582402   -0.609154   1.964975 C.3        1 UNL1     -0.0564
     53 O         -1.104875   -1.988604   -0.609207 O.3        1 UNL1     -0.4608
     54 C         -1.159375   -0.715309   -1.112874 C.2        1 UNL1     0.3042
     55 O         -0.579585   -0.279881   -2.106898 O.2        1 UNL1     -0.2512
     56 C         -2.089774   0.190778   -0.357839 C.3        1 UNL1     0.0332
     57 C         1.289698   -3.583361   1.72871 C.3        1 UNL1     -0.0567
     58 C         -4.236195   -0.864075   6.049748 C.3        1 UNL1     0.0210
     59 C         0.090812   -3.86813   2.316722 C.3        1 UNL1     0.0372
     60 C         -2.003738   -1.817143   4.428019 C.2        1 UNL1     -0.0208
     61 C         -1.309322   -1.674808   5.557741 C.2        1 UNL1     0.0882
     62 H         0.145336   2.389187   4.884521 H        1 UNL1     0.0365
     63 H         -0.638439   3.713742   6.226712 H        1 UNL1     0.0576
     64 H         0.067754   6.615914   5.468115 H        1 UNL1     0.0615
     65 H         -1.710032   5.378566   7.718961 H        1 UNL1     0.0622
     66 H         -2.580748   -3.463704   3.298402 H        1 UNL1     0.0645
     67 H         -2.791053   -2.556101   1.39256 H        1 UNL1     0.0362
     68 H         -0.903518   -3.438   0.703037 H        1 UNL1     0.0741
     69 H         1.357381   -2.100706   0.347558 H        1 UNL1     0.0359
     70 H         2.31122   -0.859357   1.944041 H        1 UNL1     0.0600
     71 H         1.742203   1.051091   1.088986 H        1 UNL1     0.0348
     72 H         1.105999   1.522035   3.392353 H        1 UNL1     0.0602
     73 H         -2.938916   -1.327399   4.314703 H        1 UNL1     0.0628
     74 H         -0.317842   -2.095267   5.729259 H        1 UNL1     0.1022
     75 H         -1.300938   9.428193   7.341567 H        1 UNL1     0.0279
     76 H         -2.93973   9.330674   6.83348 H        1 UNL1     0.0279
     77 H         -2.484557   9.425376   8.582522 H        1 UNL1     0.0279
     78 H         -4.613371   7.57267   7.181116 H        1 UNL1     0.1553
     79 H         -3.838802   7.001296   5.449123 H        1 UNL1     0.1484
     80 H         -4.456659   4.353863   2.794157 H        1 UNL1     0.0317
     81 H         -5.470385   4.524673   4.220028 H        1 UNL1     0.0317
     82 H         -5.357858   7.026485   4.071775 H        1 UNL1     0.0428
     83 H         -5.983798   6.289951   2.613208 H        1 UNL1     0.0428
     84 H         -1.895476   7.466637   2.548648 H        1 UNL1     0.0428
     85 H         -2.767762   7.799099   4.003883 H        1 UNL1     0.0428
     86 H         -1.31801   5.768592   3.993371 H        1 UNL1     0.0317
     87 H         -2.174677   5.041985   2.712545 H        1 UNL1     0.0317
     88 H         -5.476864   8.141704   1.578397 H        1 UNL1     0.0429
     89 H         -4.192377   9.091009   2.330161 H        1 UNL1     0.0429
     90 H         -3.581204   7.238668   -0.024009 H        1 UNL1     0.0308
     91 H         -5.391038   9.531599   -0.160621 H        1 UNL1     0.0233
     92 H         -3.900203   9.870745   -1.075982 H        1 UNL1     0.0233
     93 H         -4.88096   8.475997   -1.472714 H        1 UNL1     0.0233
     94 H         -1.66411   8.084337   1.074413 H        1 UNL1     0.0233
     95 H         -1.836442   8.960367   -0.454378 H        1 UNL1     0.0233
     96 H         -2.285708   9.747606   1.076113 H        1 UNL1     0.0233
     97 H         -4.229066   -0.701498   10.63021 H        1 UNL1     0.0280
     98 H         -5.271644   0.401662   11.486515 H        1 UNL1     0.0280
     99 H         -5.890043   -0.471552   10.053055 H        1 UNL1     0.0280
     100 H         -6.683073   2.703823   10.665663 H        1 UNL1     0.2922
     101 H         2.440134   3.68877   5.581192 H        1 UNL1     0.0236
     102 H         2.848804   3.169469   3.899117 H        1 UNL1     0.0236
     103 H         2.405219   2.015794   5.118855 H        1 UNL1     0.0236
     104 H         1.343649   4.054691   2.33602 H        1 UNL1     0.2098
     105 H         -1.237222   0.635022   1.037698 H        1 UNL1     0.0234
     106 H         -0.229614   1.674365   -0.009006 H        1 UNL1     0.0234
     107 H         0.0   0.0   -0.0 H        1 UNL1     0.0234
     108 H         0.325551   -1.667163   3.595512 H        1 UNL1     0.2098
     109 H         -3.287578   -0.538615   2.804894 H        1 UNL1     0.0234
     110 H         -1.84275   0.195321   2.038987 H        1 UNL1     0.0234
     111 H         -3.162553   -0.355643   1.067699 H        1 UNL1     0.0234
     112 H         -3.071837   -0.281866   -0.260341 H        1 UNL1     0.0342
     113 H         -1.69073   0.467256   0.616927 H        1 UNL1     0.0342
     114 H         -2.216675   1.11412   -0.939646 H        1 UNL1     0.0342
     115 H         2.357654   -3.711721   1.504695 H        1 UNL1     0.0234
     116 H         1.153886   -3.766189   2.796501 H        1 UNL1     0.0234
     117 H         0.852841   -4.434864   1.179129 H        1 UNL1     0.0234
     118 H         -4.616811   -0.069904   5.383843 H        1 UNL1     0.0309
     119 H         -4.077388   -1.775906   5.465328 H        1 UNL1     0.0309
     120 H         -5.08678   -1.070445   6.708553 H        1 UNL1     0.0309
     121 H         -0.611099   -3.767506   1.489345 H        1 UNL1     0.0524
     122 H         0.992541   -3.287815   2.059513 H        1 UNL1     0.0524
     123 H         0.367887   -4.910213   2.448581 H        1 UNL1     0.0524
@<TRIPOS>BOND
     1     1     2    1
     2     1    42    1
     3     2     3    2
     4     3     4    1
     5     4     5    2
     6     5     7    1
     7     6    75    1
     8     6    76    1
     9     6    77    1
    10     7     9   am
    11     9    10    1
    12    10    11    2
    13    10    43    1
    14    11    14    1
    15    11    15    1
    16    12    13   ar
    17    12    27   ar
    18    12    43    1
    19    13    14    1
    20    13    30   ar
    21    14    17    2
    22    15    16    1
    23    16    17    1
    24    16    18    1
    25    16    22    1
    26    18    19    1
    27    19    20    1
    28    20    21    1
    29    21    22    1
    30    23    24    1
    31    23    88    1
    32    23    89    1
    33    24    25    1
    34    24    26    1
    35    24    90    1
    36    25    91    1
    37    25    92    1
    38    25    93    1
    39    26    94    1
    40    26    95    1
    41    26    96    1
    42    27    28   ar
    43    28    29   ar
    44    29    30   ar
    45    29    31    1
    46    30    33    1
    47    31    32    1
    48    32    33    1
    49    32    35    1
    50    34    97    1
    51    34    98    1
    52    34    99    1
    53    35    61    1
    54    36    37    1
    55    36    60    1
    56    37    38    1
    57    38    39    1
    58    39    40    1
    59    40    41    1
    60    41    42    1
    61    45   100    1
    62    47   101    1
    63    47   102    1
    64    47   103    1
    65    48   104    1
    66    49   105    1
    67    49   106    1
    68    49   107    1
    69    50   108    1
    70    51    59    1
    71    52   109    1
    72    52   110    1
    73    52   111    1
    74    53    54    1
    75    54    55    2
    76    54    56    1
    77    56   112    1
    78    56   113    1
    79    56   114    1
    80    57   115    1
    81    57   116    1
    82    57   117    1
    83    58   118    1
    84    58   119    1
    85    58   120    1
    86    59   121    1
    87    59   122    1
    88    59   123    1
    89    60    61    2
    90     1    47    1
    91     1    62    1
    92     2    63    1
    93     3    64    1
    94     4    65    1
    95     5     6    1
    96     7     8    2
    97     9    78    1
    98    15    79    1
    99    18    80    1
   100    18    81    1
   101    19    82    1
   102    19    83    1
   103    20    23    1
   104    21    84    1
   105    21    85    1
   106    22    86    1
   107    22    87    1
   108    27    45    1
   109    28    34    1
   110    32    58    1
   111    33    46    2
   112    36    51    1
   113    36    66    1
   114    37    52    1
   115    37    67    1
   116    38    53    1
   117    38    68    1
   118    42    48    1
   119    42    72    1
   120    43    44    2
   121    60    73    1
   122    61    74    1
   123    39    69    1
   124    39    57    1
   125    40    70    1
   126    40    50    1
   127    41    71    1
   128    41    49    1
