@<TRIPOS>MOLECULE
*****
 123 128 0 0 0
SMALL
GASTEIGER

@<TRIPOS>ATOM
     1 C         3.582786   2.292882   2.959805 C.3        1 UNL1     0.0009
     2 C         5.307256   2.955688   2.805121 C.2        1 UNL1     -0.0787
     3 C         6.710455   2.900367   3.157283 C.2        1 UNL1     -0.0649
     4 C         7.980109   3.82206   2.52103 C.2        1 UNL1     -0.0542
     5 C         9.383789   3.900303   2.345991 C.2        1 UNL1     0.0115
     6 C         10.739352   3.266046   2.762515 C.3        1 UNL1     -0.0348
     7 C         9.973555   4.894706   1.232292 C.2        1 UNL1     0.2441
     8 O         10.464264   5.981921   1.503759 O.2        1 UNL1     -0.2702
     9 N         10.126944   4.32534   -0.043814 N.am        1 UNL1     -0.2772
     10 C         8.967317   4.459784   -0.772176 C.2        1 UNL1     0.1049
     11 C         8.033024   3.552761   -0.55166 C.2        1 UNL1     0.0801
     12 C         7.236974   6.131837   -1.455908 C.ar        1 UNL1     0.0753
     13 C         6.259821   5.188143   -1.005108 C.ar        1 UNL1     0.0305
     14 C         6.623606   3.815563   -0.660525 C.2        1 UNL1     0.0924
     15 N         8.099733   2.388914   0.117323 N.pl3        1 UNL1     -0.3170
     16 C         6.855593   1.694656   -0.083615 C.3        1 UNL1     0.1275
     17 N         5.845987   2.790398   -0.323966 N.2        1 UNL1     -0.2557
     18 C         6.97178   0.929969   -1.398703 C.3        1 UNL1     0.0016
     19 C         8.19153   0.02502   -1.328945 C.3        1 UNL1     0.0026
     20 N         8.033552   -0.887135   -0.204648 N.3        1 UNL1     -0.3018
     21 C         7.852643   -0.242955   1.097917 C.3        1 UNL1     0.0026
     22 C         6.619525   0.657573   1.006467 C.3        1 UNL1     0.0016
     23 C         8.985884   -1.979484   -0.226566 C.3        1 UNL1     0.0012
     24 C         10.292868   -1.56865   0.469684 C.3        1 UNL1     -0.0339
     25 C         10.374445   -2.139839   1.894866 C.3        1 UNL1     -0.0615
     26 C         11.485543   -1.990541   -0.370743 C.3        1 UNL1     -0.0615
     27 C         6.86602   7.399838   -1.897137 C.ar        1 UNL1     0.1347
     28 C         5.550652   7.822287   -1.97059 C.ar        1 UNL1     0.0342
     29 C         4.609887   6.894285   -1.475679 C.ar        1 UNL1     0.1435
     30 C         4.970001   5.634027   -0.996841 C.ar        1 UNL1     0.0774
     31 O         3.281052   7.113743   -1.580761 O.3        1 UNL1     -0.4436
     32 C         2.686012   5.816246   -1.428111 C.3        1 UNL1     0.3143
     33 C         3.711264   4.996867   -0.670689 C.2        1 UNL1     0.2504
     34 C         5.060544   9.063321   -2.663214 C.3        1 UNL1     -0.0327
     35 O         1.551997   5.966533   -0.565166 O.2        1 UNL1     -0.4528
     36 C         -0.925834   3.294689   -1.628035 C.3        1 UNL1     0.0854
     37 C         -0.732999   1.731254   -1.705537 C.3        1 UNL1     0.0236
     38 C         -1.808425   0.87583   -0.878824 C.3        1 UNL1     0.1131
     39 C         -2.092395   1.22624   0.63737 C.3        1 UNL1     0.0200
     40 C         -0.83204   1.5608   1.677569 C.3        1 UNL1     0.0661
     41 C         0.564317   0.619489   1.881855 C.3        1 UNL1     0.0091
     42 C         2.282038   1.112894   2.295845 C.3        1 UNL1     0.0661
     43 C         8.650263   5.684116   -1.522405 C.2        1 UNL1     0.2131
     44 O         9.491254   6.212552   -2.226838 O.2        1 UNL1     -0.2851
     45 O         7.8827   8.274072   -2.275969 O.3        1 UNL1     -0.5056
     46 O         3.528141   4.046039   0.056117 O.2        1 UNL1     -0.2836
     47 C         2.966631   2.70588   4.323538 C.3        1 UNL1     -0.0566
     48 O         2.447628   0.078085   3.345067 O.3        1 UNL1     -0.3909
     49 C         0.652597   -0.375457   0.74617 C.3        1 UNL1     -0.0577
     50 O         -0.487719   2.930559   1.623475 O.3        1 UNL1     -0.3910
     51 O         -1.897424   3.751017   -0.714137 O.3        1 UNL1     -0.3753
     52 C         0.778099   1.333577   -1.763726 C.3        1 UNL1     -0.0564
     53 O         -1.825457   -0.580113   -1.242508 O.3        1 UNL1     -0.4608
     54 C         -2.016098   -1.61636   -0.366279 C.2        1 UNL1     0.3042
     55 O         -2.716133   -2.614663   -0.53114 O.2        1 UNL1     -0.2512
     56 C         -1.212104   -1.491745   0.896566 C.3        1 UNL1     0.0332
     57 C         -3.368722   2.189275   0.678927 C.3        1 UNL1     -0.0567
     58 C         2.535549   5.233685   -2.852721 C.3        1 UNL1     0.0210
     59 C         -3.090279   4.257929   -1.310796 C.3        1 UNL1     0.0372
     60 C         0.316018   4.068769   -1.356439 C.2        1 UNL1     -0.0208
     61 C         0.536807   5.082674   -0.518589 C.2        1 UNL1     0.0882
     62 H         3.250907   3.038919   2.227687 H        1 UNL1     0.0365
     63 H         5.134975   3.824233   2.166044 H        1 UNL1     0.0576
     64 H         7.112037   2.101718   3.784977 H        1 UNL1     0.0615
     65 H         7.473176   4.628189   1.98376 H        1 UNL1     0.0622
     66 H         -1.246052   3.583752   -2.638951 H        1 UNL1     0.0645
     67 H         -1.004332   1.478888   -2.745369 H        1 UNL1     0.0362
     68 H         -2.724038   1.158931   -1.420146 H        1 UNL1     0.0741
     69 H         -2.568761   0.376357   1.10767 H        1 UNL1     0.0359
     70 H         -1.350117   1.443965   2.648654 H        1 UNL1     0.0600
     71 H         0.237945   -0.03191   2.716192 H        1 UNL1     0.0348
     72 H         1.642971   1.95421   2.600961 H        1 UNL1     0.0602
     73 H         1.065075   3.782763   -2.052401 H        1 UNL1     0.0628
     74 H         -0.155511   5.399357   0.26221 H        1 UNL1     0.1022
     75 H         10.588109   2.518007   3.577743 H        1 UNL1     0.0279
     76 H         11.256157   2.683612   2.003073 H        1 UNL1     0.0279
     77 H         11.413286   3.985304   3.250552 H        1 UNL1     0.0279
     78 H         10.318193   3.329688   0.046618 H        1 UNL1     0.1553
     79 H         8.959227   1.915027   0.326207 H        1 UNL1     0.1484
     80 H         6.053271   0.352509   -1.558852 H        1 UNL1     0.0317
     81 H         7.060482   1.619002   -2.245472 H        1 UNL1     0.0317
     82 H         9.123089   0.603357   -1.24157 H        1 UNL1     0.0428
     83 H         8.256541   -0.509402   -2.277216 H        1 UNL1     0.0428
     84 H         7.656704   -0.947452   1.912229 H        1 UNL1     0.0428
     85 H         8.757641   0.29104   1.419078 H        1 UNL1     0.0428
     86 H         6.440711   1.00613   2.006728 H        1 UNL1     0.0317
     87 H         5.730572   0.054332   0.785197 H        1 UNL1     0.0317
     88 H         8.548839   -2.824652   0.321137 H        1 UNL1     0.0429
     89 H         9.174507   -2.323556   -1.251656 H        1 UNL1     0.0429
     90 H         10.339947   -0.474796   0.528675 H        1 UNL1     0.0308
     91 H         11.332811   -1.900137   2.365164 H        1 UNL1     0.0233
     92 H         9.563451   -1.749802   2.514357 H        1 UNL1     0.0233
     93 H         10.275315   -3.23193   1.913401 H        1 UNL1     0.0233
     94 H         12.306296   -2.318707   0.276178 H        1 UNL1     0.0233
     95 H         11.209658   -2.82873   -1.016722 H        1 UNL1     0.0233
     96 H         11.845191   -1.167525   -0.994655 H        1 UNL1     0.0233
     97 H         5.353615   9.966601   -2.136502 H        1 UNL1     0.0280
     98 H         5.47002   9.160434   -3.677194 H        1 UNL1     0.0280
     99 H         3.960208   9.04114   -2.725371 H        1 UNL1     0.0280
     100 H         8.14062   8.207031   -3.178524 H        1 UNL1     0.2922
     101 H         1.91002   2.439876   4.345236 H        1 UNL1     0.0236
     102 H         3.129286   3.755243   4.567186 H        1 UNL1     0.0236
     103 H         3.412591   2.149641   5.164912 H        1 UNL1     0.0236
     104 H         3.234322   0.316897   3.87332 H        1 UNL1     0.2098
     105 H         1.642431   -0.468334   0.306383 H        1 UNL1     0.0234
     106 H         0.245335   -1.361002   0.971487 H        1 UNL1     0.0234
     107 H         0.0   0.0   0.0 H        1 UNL1     0.0234
     108 H         -1.048246   3.396473   2.273477 H        1 UNL1     0.2098
     109 H         1.283009   1.74601   -2.648416 H        1 UNL1     0.0234
     110 H         1.33209   1.614345   -0.861503 H        1 UNL1     0.0234
     111 H         0.907945   0.245013   -1.827874 H        1 UNL1     0.0234
     112 H         -1.790706   -0.955281   1.654703 H        1 UNL1     0.0342
     113 H         -0.882575   -2.46033   1.269523 H        1 UNL1     0.0342
     114 H         -0.314869   -0.897627   0.674848 H        1 UNL1     0.0342
     115 H         -3.755163   2.31133   1.700178 H        1 UNL1     0.0234
     116 H         -3.185189   3.187215   0.27584 H        1 UNL1     0.0234
     117 H         -4.251816   1.771673   0.165415 H        1 UNL1     0.0234
     118 H         2.263086   6.008317   -3.59077 H        1 UNL1     0.0309
     119 H         3.431357   4.708448   -3.198924 H        1 UNL1     0.0309
     120 H         1.713668   4.513264   -2.927622 H        1 UNL1     0.0309
     121 H         -3.935411   3.784529   -0.811796 H        1 UNL1     0.0524
     122 H         -3.194147   5.347679   -1.177781 H        1 UNL1     0.0524
     123 H         -3.105881   4.029269   -2.372664 H        1 UNL1     0.0524
@<TRIPOS>BOND
     1     1     2    1
     2     1    42    1
     3     2     3    2
     4     3     4    1
     5     4     5    2
     6     5     7    1
     7     6    75    1
     8     6    76    1
     9     6    77    1
    10     7     9   am
    11     9    10    1
    12    10    11    2
    13    10    43    1
    14    11    14    1
    15    11    15    1
    16    12    13   ar
    17    12    27   ar
    18    12    43    1
    19    13    14    1
    20    13    30   ar
    21    14    17    2
    22    15    16    1
    23    16    17    1
    24    16    18    1
    25    16    22    1
    26    18    19    1
    27    19    20    1
    28    20    21    1
    29    21    22    1
    30    23    24    1
    31    23    88    1
    32    23    89    1
    33    24    25    1
    34    24    26    1
    35    24    90    1
    36    25    91    1
    37    25    92    1
    38    25    93    1
    39    26    94    1
    40    26    95    1
    41    26    96    1
    42    27    28   ar
    43    28    29   ar
    44    29    30   ar
    45    29    31    1
    46    30    33    1
    47    31    32    1
    48    32    33    1
    49    32    35    1
    50    34    97    1
    51    34    98    1
    52    34    99    1
    53    35    61    1
    54    36    37    1
    55    36    60    1
    56    37    38    1
    57    38    39    1
    58    39    40    1
    59    40    41    1
    60    41    42    1
    61    45   100    1
    62    47   101    1
    63    47   102    1
    64    47   103    1
    65    48   104    1
    66    49   105    1
    67    49   106    1
    68    49   107    1
    69    50   108    1
    70    51    59    1
    71    52   109    1
    72    52   110    1
    73    52   111    1
    74    53    54    1
    75    54    55    2
    76    54    56    1
    77    56   112    1
    78    56   113    1
    79    56   114    1
    80    57   115    1
    81    57   116    1
    82    57   117    1
    83    58   118    1
    84    58   119    1
    85    58   120    1
    86    59   121    1
    87    59   122    1
    88    59   123    1
    89    60    61    2
    90     1    47    1
    91     1    62    1
    92     2    63    1
    93     3    64    1
    94     4    65    1
    95     5     6    1
    96     7     8    2
    97     9    78    1
    98    15    79    1
    99    18    80    1
   100    18    81    1
   101    19    82    1
   102    19    83    1
   103    20    23    1
   104    21    84    1
   105    21    85    1
   106    22    86    1
   107    22    87    1
   108    27    45    1
   109    28    34    1
   110    32    58    1
   111    33    46    2
   112    36    51    1
   113    36    66    1
   114    37    52    1
   115    37    67    1
   116    38    53    1
   117    38    68    1
   118    42    48    1
   119    42    72    1
   120    43    44    2
   121    60    73    1
   122    61    74    1
   123    39    69    1
   124    39    57    1
   125    40    70    1
   126    40    50    1
   127    41    71    1
   128    41    49    1
