@<TRIPOS>MOLECULE
*****
 123 128 0 0 0
SMALL
GASTEIGER

@<TRIPOS>ATOM
     1 C         5.152961   1.859455   -0.034139 C.3        1 UNL1     0.0009
     2 C         6.711844   2.077326   0.945378 C.2        1 UNL1     -0.0787
     3 C         7.607196   2.919352   1.710482 C.2        1 UNL1     -0.0649
     4 C         8.998071   2.458732   2.558804 C.2        1 UNL1     -0.0542
     5 C         9.90748   2.822466   3.582402 C.2        1 UNL1     0.0115
     6 C         10.342836   3.978943   4.523862 C.3        1 UNL1     -0.0348
     7 C         10.848302   1.69092   4.223842 C.2        1 UNL1     0.2441
     8 O         12.028889   1.562114   3.93033 O.2        1 UNL1     -0.2702
     9 N         10.297826   1.026921   5.333902 N.am        1 UNL1     -0.2772
     10 C         9.552495   -0.055094   4.925188 C.2        1 UNL1     0.1049
     11 C         8.313439   0.20122   4.546683 C.2        1 UNL1     0.0801
     12 C         9.628217   -2.071045   3.446153 C.ar        1 UNL1     0.0753
     13 C         8.372816   -1.632759   2.916549 C.ar        1 UNL1     0.0305
     14 C         7.6128   -0.553604   3.543328 C.2        1 UNL1     0.0924
     15 N         7.580477   1.318843   4.688851 N.pl3        1 UNL1     -0.3170
     16 C         6.239103   1.021966   4.261261 C.3        1 UNL1     0.1275
     17 N         6.401245   -0.088527   3.252182 N.2        1 UNL1     -0.2557
     18 C         5.510074   0.408351   5.452771 C.3        1 UNL1     0.0016
     19 C         5.596369   1.372773   6.624962 C.3        1 UNL1     0.0026
     20 N         4.990353   2.638365   6.235027 N.3        1 UNL1     -0.3018
     21 C         5.584986   3.27606   5.058539 C.3        1 UNL1     0.0026
     22 C         5.483332   2.291652   3.892133 C.3        1 UNL1     0.0016
     23 C         4.751168   3.519574   7.360596 C.3        1 UNL1     0.0012
     24 C         3.616261   2.972972   8.24092 C.3        1 UNL1     -0.0339
     25 C         2.787448   4.110282   8.860315 C.3        1 UNL1     -0.0615
     26 C         2.74687   2.020912   7.4381 C.3        1 UNL1     -0.0615
     27 C         10.287975   -3.177737   2.916936 C.ar        1 UNL1     0.1347
     28 C         9.773723   -3.946516   1.888065 C.ar        1 UNL1     0.0342
     29 C         8.56042   -3.46732   1.350078 C.ar        1 UNL1     0.1435
     30 C         7.906046   -2.339079   1.846151 C.ar        1 UNL1     0.0774
     31 O         7.877865   -4.167093   0.417639 O.3        1 UNL1     -0.4436
     32 C         6.542561   -3.643298   0.47658 C.3        1 UNL1     0.3143
     33 C         6.686961   -2.256138   1.069159 C.2        1 UNL1     0.2504
     34 C         10.296381   -5.28293   1.439815 C.3        1 UNL1     -0.0327
     35 O         6.090844   -3.475535   -0.872887 O.2        1 UNL1     -0.4528
     36 C         2.327001   -3.957784   -0.777937 C.3        1 UNL1     0.0854
     37 C         1.244155   -3.182164   0.066681 C.3        1 UNL1     0.0236
     38 C         0.057158   -2.529927   -0.792022 C.3        1 UNL1     0.1131
     39 C         0.399167   -1.621078   -2.040738 C.3        1 UNL1     0.0200
     40 C         1.616789   -0.484564   -1.950339 C.3        1 UNL1     0.0661
     41 C         1.808435   0.670895   -0.72323 C.3        1 UNL1     0.0091
     42 C         3.328962   1.414642   -0.015954 C.3        1 UNL1     0.0661
     43 C         10.161192   -1.362062   4.635918 C.2        1 UNL1     0.2131
     44 O         10.972756   -1.849029   5.402055 O.2        1 UNL1     -0.2851
     45 O         11.527237   -3.510546   3.459986 O.3        1 UNL1     -0.5056
     46 O         5.969423   -1.293001   0.916314 O.2        1 UNL1     -0.2836
     47 C         5.309174   2.490663   -1.443803 C.3        1 UNL1     -0.0566
     48 O         2.819636   2.805452   -0.089113 O.3        1 UNL1     -0.3909
     49 C         0.916503   0.299497   0.440391 C.3        1 UNL1     -0.0577
     50 O         2.866562   -1.062617   -2.269156 O.3        1 UNL1     -0.3910
     51 O         2.218575   -3.836911   -2.178317 O.3        1 UNL1     -0.3753
     52 C         1.87788   -2.453501   1.296475 C.3        1 UNL1     -0.0564
     53 O         -1.122999   -2.111706   0.035411 O.3        1 UNL1     -0.4608
     54 C         -1.885366   -0.992651   -0.1754 C.2        1 UNL1     0.3042
     55 O         -1.845287   0.066852   0.448849 O.2        1 UNL1     -0.2512
     56 C         -2.817252   -1.111875   -1.347615 C.3        1 UNL1     0.0332
     57 C         0.340251   -2.548275   -3.342664 C.3        1 UNL1     -0.0567
     58 C         5.766977   -4.534001   1.474902 C.3        1 UNL1     0.0210
     59 C         1.758073   -5.010039   -2.847326 C.3        1 UNL1     0.0372
     60 C         3.739522   -3.645307   -0.428217 C.2        1 UNL1     -0.0208
     61 C         4.789747   -3.397965   -1.212177 C.2        1 UNL1     0.0882
     62 H         5.391139   0.794206   -0.140104 H        1 UNL1     0.0365
     63 H         7.158788   1.086591   0.839771 H        1 UNL1     0.0576
     64 H         7.355177   3.955152   1.948628 H        1 UNL1     0.0615
     65 H         9.204899   1.449719   2.191927 H        1 UNL1     0.0622
     66 H         2.177944   -5.014327   -0.514222 H        1 UNL1     0.0645
     67 H         0.708547   -3.978605   0.611992 H        1 UNL1     0.0362
     68 H         -0.390942   -3.444056   -1.210466 H        1 UNL1     0.0741
     69 H         -0.467928   -1.020903   -2.282283 H        1 UNL1     0.0359
     70 H         1.3654   0.134802   -2.832524 H        1 UNL1     0.0600
     71 H         1.24717   1.517324   -1.165381 H        1 UNL1     0.0348
     72 H         3.620393   0.998196   -0.991124 H        1 UNL1     0.0602
     73 H         3.874668   -3.763824   0.618176 H        1 UNL1     0.0628
     74 H         4.727651   -3.206095   -2.28389 H        1 UNL1     0.1022
     75 H         10.450657   4.931377   3.950905 H        1 UNL1     0.0279
     76 H         9.642218   4.255611   5.308502 H        1 UNL1     0.0279
     77 H         11.361216   3.846316   4.917578 H        1 UNL1     0.0279
     78 H         9.674416   1.656753   5.834651 H        1 UNL1     0.1553
     79 H         7.792669   2.043796   5.349419 H        1 UNL1     0.1484
     80 H         4.468376   0.211574   5.171862 H        1 UNL1     0.0317
     81 H         5.94909   -0.557458   5.725036 H        1 UNL1     0.0317
     82 H         6.634766   1.517078   6.957859 H        1 UNL1     0.0428
     83 H         5.07186   0.914831   7.464146 H        1 UNL1     0.0428
     84 H         5.061623   4.182775   4.739522 H        1 UNL1     0.0428
     85 H         6.611986   3.615084   5.252576 H        1 UNL1     0.0428
     86 H         5.803699   2.837275   3.024003 H        1 UNL1     0.0317
     87 H         4.430311   2.070875   3.678823 H        1 UNL1     0.0317
     88 H         5.669159   3.563384   7.961152 H        1 UNL1     0.0429
     89 H         4.535853   4.542912   7.02714 H        1 UNL1     0.0429
     90 H         4.047348   2.373584   9.051544 H        1 UNL1     0.0308
     91 H         2.536688   4.871102   8.11508 H        1 UNL1     0.0233
     92 H         1.865965   3.721519   9.300021 H        1 UNL1     0.0233
     93 H         3.320652   4.622181   9.670555 H        1 UNL1     0.0233
     94 H         1.825379   1.797415   7.986498 H        1 UNL1     0.0233
     95 H         2.469197   2.481408   6.485838 H        1 UNL1     0.0233
     96 H         3.266188   1.07974   7.23692 H        1 UNL1     0.0233
     97 H         9.541331   -6.060211   1.510282 H        1 UNL1     0.0280
     98 H         10.617986   -5.27063   0.390208 H        1 UNL1     0.0280
     99 H         11.152474   -5.574633   2.06998 H        1 UNL1     0.0280
     100 H         12.128187   -2.790192   3.534632 H        1 UNL1     0.2922
     101 H         5.447297   1.704259   -2.185522 H        1 UNL1     0.0236
     102 H         6.097064   3.241569   -1.492311 H        1 UNL1     0.0236
     103 H         4.396282   3.020116   -1.763961 H        1 UNL1     0.0236
     104 H         1.883251   2.762502   -0.365352 H        1 UNL1     0.2098
     105 H         1.283471   -0.529025   1.040972 H        1 UNL1     0.0234
     106 H         0.63295   1.134192   1.081335 H        1 UNL1     0.0234
     107 H         -0.0   0.0   0.0 H        1 UNL1     0.0234
     108 H         3.557888   -0.434343   -1.984359 H        1 UNL1     0.2098
     109 H         2.363242   -3.154013   1.990317 H        1 UNL1     0.0234
     110 H         2.58687   -1.668171   1.013042 H        1 UNL1     0.0234
     111 H         1.119036   -1.925715   1.889387 H        1 UNL1     0.0234
     112 H         -3.378807   -0.181105   -1.472791 H        1 UNL1     0.0342
     113 H         -2.291362   -1.377099   -2.263551 H        1 UNL1     0.0342
     114 H         -3.537432   -1.913469   -1.133248 H        1 UNL1     0.0342
     115 H         -0.024467   -1.997133   -4.220394 H        1 UNL1     0.0234
     116 H         1.29844   -2.997221   -3.611684 H        1 UNL1     0.0234
     117 H         -0.407293   -3.35716   -3.273207 H        1 UNL1     0.0234
     118 H         5.006088   -5.155681   0.971347 H        1 UNL1     0.0309
     119 H         6.41944   -5.179592   2.071313 H        1 UNL1     0.0309
     120 H         5.180915   -3.949326   2.192393 H        1 UNL1     0.0309
     121 H         2.138544   -4.978365   -3.867912 H        1 UNL1     0.0524
     122 H         2.137321   -5.934155   -2.380189 H        1 UNL1     0.0524
     123 H         0.672119   -5.037752   -2.852826 H        1 UNL1     0.0524
@<TRIPOS>BOND
     1     1     2    1
     2     1    42    1
     3     2     3    2
     4     3     4    1
     5     4     5    2
     6     5     7    1
     7     6    75    1
     8     6    76    1
     9     6    77    1
    10     7     9   am
    11     9    10    1
    12    10    11    2
    13    10    43    1
    14    11    14    1
    15    11    15    1
    16    12    13   ar
    17    12    27   ar
    18    12    43    1
    19    13    14    1
    20    13    30   ar
    21    14    17    2
    22    15    16    1
    23    16    17    1
    24    16    18    1
    25    16    22    1
    26    18    19    1
    27    19    20    1
    28    20    21    1
    29    21    22    1
    30    23    24    1
    31    23    88    1
    32    23    89    1
    33    24    25    1
    34    24    26    1
    35    24    90    1
    36    25    91    1
    37    25    92    1
    38    25    93    1
    39    26    94    1
    40    26    95    1
    41    26    96    1
    42    27    28   ar
    43    28    29   ar
    44    29    30   ar
    45    29    31    1
    46    30    33    1
    47    31    32    1
    48    32    33    1
    49    32    35    1
    50    34    97    1
    51    34    98    1
    52    34    99    1
    53    35    61    1
    54    36    37    1
    55    36    60    1
    56    37    38    1
    57    38    39    1
    58    39    40    1
    59    40    41    1
    60    41    42    1
    61    45   100    1
    62    47   101    1
    63    47   102    1
    64    47   103    1
    65    48   104    1
    66    49   105    1
    67    49   106    1
    68    49   107    1
    69    50   108    1
    70    51    59    1
    71    52   109    1
    72    52   110    1
    73    52   111    1
    74    53    54    1
    75    54    55    2
    76    54    56    1
    77    56   112    1
    78    56   113    1
    79    56   114    1
    80    57   115    1
    81    57   116    1
    82    57   117    1
    83    58   118    1
    84    58   119    1
    85    58   120    1
    86    59   121    1
    87    59   122    1
    88    59   123    1
    89    60    61    2
    90     1    47    1
    91     1    62    1
    92     2    63    1
    93     3    64    1
    94     4    65    1
    95     5     6    1
    96     7     8    2
    97     9    78    1
    98    15    79    1
    99    18    80    1
   100    18    81    1
   101    19    82    1
   102    19    83    1
   103    20    23    1
   104    21    84    1
   105    21    85    1
   106    22    86    1
   107    22    87    1
   108    27    45    1
   109    28    34    1
   110    32    58    1
   111    33    46    2
   112    36    51    1
   113    36    66    1
   114    37    52    1
   115    37    67    1
   116    38    53    1
   117    38    68    1
   118    42    48    1
   119    42    72    1
   120    43    44    2
   121    60    73    1
   122    61    74    1
   123    39    69    1
   124    39    57    1
   125    40    70    1
   126    40    50    1
   127    41    71    1
   128    41    49    1
