@<TRIPOS>MOLECULE
*****
 123 128 0 0 0
SMALL
GASTEIGER

@<TRIPOS>ATOM
     1 C         -3.076664   1.752893   -2.208915 C.3        1 UNL1     0.0009
     2 C         -3.938076   3.356907   -1.859423 C.2        1 UNL1     -0.0787
     3 C         -5.082649   4.083208   -1.351009 C.2        1 UNL1     -0.0649
     4 C         -5.257974   5.757908   -1.174942 C.2        1 UNL1     -0.0542
     5 C         -5.976144   6.787414   -0.518111 C.2        1 UNL1     0.0115
     6 C         -7.210908   7.084472   0.376561 C.3        1 UNL1     -0.0348
     7 C         -5.35238   8.266029   -0.47805 C.2        1 UNL1     0.2441
     8 O         -5.735589   9.169896   -1.207915 O.2        1 UNL1     -0.2702
     9 N         -4.52091   8.524806   0.625509 N.am        1 UNL1     -0.2772
     10 C         -3.2237   8.161659   0.344987 C.2        1 UNL1     0.1049
     11 C         -2.929154   6.884304   0.505703 C.2        1 UNL1     0.0801
     12 C         -1.425763   8.399179   -1.377901 C.ar        1 UNL1     0.0753
     13 C         -1.288625   6.975743   -1.317658 C.ar        1 UNL1     0.0305
     14 C         -1.945423   6.187106   -0.2776 C.2        1 UNL1     0.0924
     15 N         -3.630813   5.904205   1.100352 N.pl3        1 UNL1     -0.3170
     16 C         -2.791758   4.736842   1.15953 C.3        1 UNL1     0.1275
     17 N         -1.851857   4.88732   -0.011651 N.2        1 UNL1     -0.2557
     18 C         -1.930427   4.862138   2.412572 C.3        1 UNL1     0.0016
     19 C         -2.843907   5.040295   3.614821 C.3        1 UNL1     0.0026
     20 N         -3.731818   3.889213   3.702302 N.3        1 UNL1     -0.3018
     21 C         -4.557998   3.649822   2.517192 C.3        1 UNL1     0.0026
     22 C         -3.619922   3.469116   1.322515 C.3        1 UNL1     0.0016
     23 C         -4.431752   3.811892   4.969092 C.3        1 UNL1     0.0012
     24 C         -3.91882   4.891862   5.93466 C.3        1 UNL1     -0.0339
     25 C         -2.799476   5.730926   5.296618 C.3        1 UNL1     -0.0615
     26 C         -5.072169   5.762141   6.402829 C.3        1 UNL1     -0.0615
     27 C         -0.701796   9.155789   -2.296341 C.ar        1 UNL1     0.1347
     28 C         0.215595   8.607361   -3.174789 C.ar        1 UNL1     0.0342
     29 C         0.297855   7.19936   -3.130864 C.ar        1 UNL1     0.1435
     30 C         -0.447811   6.425233   -2.240959 C.ar        1 UNL1     0.0774
     31 O         1.223849   6.524834   -3.846794 O.3        1 UNL1     -0.4436
     32 C         1.315681   5.243804   -3.205389 C.3        1 UNL1     0.3143
     33 C         -0.003538   5.068084   -2.480823 C.2        1 UNL1     0.2504
     34 C         1.205503   9.373154   -4.007701 C.3        1 UNL1     -0.0327
     35 O         1.359381   4.252146   -4.23881 O.2        1 UNL1     -0.4528
     36 C         3.392206   1.37183   -2.831866 C.3        1 UNL1     0.0854
     37 C         3.14656   0.523891   -1.524893 C.3        1 UNL1     0.0236
     38 C         3.061917   -1.061132   -1.75355 C.3        1 UNL1     0.1131
     39 C         2.097545   -1.643835   -2.863826 C.3        1 UNL1     0.0200
     40 C         0.551617   -1.042667   -3.040293 C.3        1 UNL1     0.0661
     41 C         -0.579712   -0.829129   -1.794457 C.3        1 UNL1     0.0091
     42 C         -1.900273   0.427528   -1.588696 C.3        1 UNL1     0.0661
     43 C         -2.297425   9.05228   -0.36997 C.2        1 UNL1     0.2131
     44 O         -2.202938   10.22536   -0.057413 O.2        1 UNL1     -0.2851
     45 O         -0.927648   10.53051   -2.320208 O.3        1 UNL1     -0.5056
     46 O         -0.570956   4.039577   -2.187458 O.2        1 UNL1     -0.2836
     47 C         -3.710322   1.058497   -3.444339 C.3        1 UNL1     -0.0566
     48 O         -2.943537   -0.562331   -1.226901 O.3        1 UNL1     -0.3909
     49 C         0.131445   -0.943677   -0.46456 C.3        1 UNL1     -0.0577
     50 O         0.545974   0.082176   -3.896108 O.3        1 UNL1     -0.3910
     51 O         3.332919   0.66079   -4.047735 O.3        1 UNL1     -0.3753
     52 C         2.214224   1.268934   -0.51464 C.3        1 UNL1     -0.0564
     53 O         3.181254   -1.857803   -0.487295 O.3        1 UNL1     -0.4608
     54 C         2.491824   -3.007576   -0.203327 C.2        1 UNL1     0.3042
     55 O         1.654132   -3.569453   -0.907886 O.2        1 UNL1     -0.2512
     56 C         2.884623   -3.637315   1.102756 C.3        1 UNL1     0.0332
     57 C         2.96609   -1.867073   -4.188201 C.3        1 UNL1     -0.0567
     58 C         2.448264   5.35888   -2.158708 C.3        1 UNL1     0.0210
     59 C         4.592613   0.461241   -4.687437 C.3        1 UNL1     0.0372
     60 C         2.50908   2.559905   -2.985901 C.2        1 UNL1     -0.0208
     61 C         1.841993   3.009014   -4.049875 C.2        1 UNL1     0.0882
     62 H         -2.212685   2.319181   -2.577115 H        1 UNL1     0.0365
     63 H         -3.230123   4.066736   -2.292337 H        1 UNL1     0.0576
     64 H         -5.914483   3.571163   -0.862164 H        1 UNL1     0.0615
     65 H         -4.430846   6.169439   -1.759737 H        1 UNL1     0.0622
     66 H         4.411436   1.766856   -2.7171 H        1 UNL1     0.0645
     67 H         4.093353   0.614558   -0.964605 H        1 UNL1     0.0362
     68 H         4.081053   -1.248086   -2.124941 H        1 UNL1     0.0741
     69 H         1.922521   -2.691384   -2.657874 H        1 UNL1     0.0359
     70 H         0.099985   -1.852407   -3.644784 H        1 UNL1     0.0600
     71 H         -1.106857   -1.802114   -1.843197 H        1 UNL1     0.0348
     72 H         -1.643833   0.429408   -2.658065 H        1 UNL1     0.0602
     73 H         2.555959   3.146819   -2.102396 H        1 UNL1     0.0628
     74 H         1.697779   2.443546   -4.971116 H        1 UNL1     0.1022
     75 H         -8.138787   6.668896   -0.085361 H        1 UNL1     0.0279
     76 H         -7.215871   6.627788   1.36372 H        1 UNL1     0.0279
     77 H         -7.453656   8.156159   0.424125 H        1 UNL1     0.0279
     78 H         -4.828367   7.971482   1.422616 H        1 UNL1     0.1553
     79 H         -4.3793   6.069201   1.748023 H        1 UNL1     0.1484
     80 H         -1.309563   3.963466   2.510972 H        1 UNL1     0.0317
     81 H         -1.242815   5.710822   2.331479 H        1 UNL1     0.0317
     82 H         -3.416007   5.977931   3.556057 H        1 UNL1     0.0428
     83 H         -2.209244   5.129417   4.49704 H        1 UNL1     0.0428
     84 H         -5.15618   2.735263   2.576955 H        1 UNL1     0.0428
     85 H         -5.301185   4.445538   2.369458 H        1 UNL1     0.0428
     86 H         -4.247317   3.165625   0.505045 H        1 UNL1     0.0317
     87 H         -2.972724   2.598149   1.482663 H        1 UNL1     0.0317
     88 H         -5.498742   3.989378   4.781139 H        1 UNL1     0.0429
     89 H         -4.345295   2.811336   5.412021 H        1 UNL1     0.0429
     90 H         -3.522822   4.409087   6.835952 H        1 UNL1     0.0308
     91 H         -2.949696   6.799157   5.479426 H        1 UNL1     0.0233
     92 H         -1.823445   5.43396   5.687496 H        1 UNL1     0.0233
     93 H         -2.746514   5.598638   4.209176 H        1 UNL1     0.0233
     94 H         -5.491635   6.31966   5.558403 H        1 UNL1     0.0233
     95 H         -5.8658   5.137109   6.821693 H        1 UNL1     0.0233
     96 H         -4.748533   6.478399   7.163225 H        1 UNL1     0.0233
     97 H         2.229463   9.080761   -3.794997 H        1 UNL1     0.0280
     98 H         1.061406   9.202706   -5.082615 H        1 UNL1     0.0280
     99 H         1.104345   10.451484   -3.802599 H        1 UNL1     0.0280
     100 H         -1.327351   10.8752   -1.541075 H        1 UNL1     0.2922
     101 H         -4.76686   1.317481   -3.510001 H        1 UNL1     0.0236
     102 H         -3.551778   -0.0193   -3.458489 H        1 UNL1     0.0236
     103 H         -3.274428   1.419106   -4.390992 H        1 UNL1     0.0236
     104 H         -2.506659   -1.43184   -1.137107 H        1 UNL1     0.2098
     105 H         -0.277211   -1.701221   0.199472 H        1 UNL1     0.0234
     106 H         1.214194   -1.047024   -0.534582 H        1 UNL1     0.0234
     107 H         0.0   0.0   0.0 H        1 UNL1     0.0234
     108 H         -0.382437   0.370042   -3.990737 H        1 UNL1     0.2098
     109 H         2.640668   2.225963   -0.183047 H        1 UNL1     0.0234
     110 H         1.203174   1.433137   -0.902658 H        1 UNL1     0.0234
     111 H         2.056346   0.681239   0.39949 H        1 UNL1     0.0234
     112 H         3.944132   -3.9099   1.080734 H        1 UNL1     0.0342
     113 H         2.664974   -2.991223   1.95138 H        1 UNL1     0.0342
     114 H         2.301922   -4.560379   1.227562 H        1 UNL1     0.0342
     115 H         2.627269   -2.744772   -4.755681 H        1 UNL1     0.0234
     116 H         2.963363   -1.014228   -4.869888 H        1 UNL1     0.0234
     117 H         4.016633   -2.137258   -3.984975 H        1 UNL1     0.0234
     118 H         3.336064   4.766652   -2.441696 H        1 UNL1     0.0309
     119 H         2.753337   6.392636   -1.967706 H        1 UNL1     0.0309
     120 H         2.165756   4.941454   -1.186056 H        1 UNL1     0.0309
     121 H         4.710848   1.245515   -5.434625 H        1 UNL1     0.0524
     122 H         5.437176   0.543631   -3.983191 H        1 UNL1     0.0524
     123 H         4.622839   -0.515727   -5.161478 H        1 UNL1     0.0524
@<TRIPOS>BOND
     1     1     2    1
     2     1    42    1
     3     2     3    2
     4     3     4    1
     5     4     5    2
     6     5     7    1
     7     6    75    1
     8     6    76    1
     9     6    77    1
    10     7     9   am
    11     9    10    1
    12    10    11    2
    13    10    43    1
    14    11    14    1
    15    11    15    1
    16    12    13   ar
    17    12    27   ar
    18    12    43    1
    19    13    14    1
    20    13    30   ar
    21    14    17    2
    22    15    16    1
    23    16    17    1
    24    16    18    1
    25    16    22    1
    26    18    19    1
    27    19    20    1
    28    20    21    1
    29    21    22    1
    30    23    24    1
    31    23    88    1
    32    23    89    1
    33    24    25    1
    34    24    26    1
    35    24    90    1
    36    25    91    1
    37    25    92    1
    38    25    93    1
    39    26    94    1
    40    26    95    1
    41    26    96    1
    42    27    28   ar
    43    28    29   ar
    44    29    30   ar
    45    29    31    1
    46    30    33    1
    47    31    32    1
    48    32    33    1
    49    32    35    1
    50    34    97    1
    51    34    98    1
    52    34    99    1
    53    35    61    1
    54    36    37    1
    55    36    60    1
    56    37    38    1
    57    38    39    1
    58    39    40    1
    59    40    41    1
    60    41    42    1
    61    45   100    1
    62    47   101    1
    63    47   102    1
    64    47   103    1
    65    48   104    1
    66    49   105    1
    67    49   106    1
    68    49   107    1
    69    50   108    1
    70    51    59    1
    71    52   109    1
    72    52   110    1
    73    52   111    1
    74    53    54    1
    75    54    55    2
    76    54    56    1
    77    56   112    1
    78    56   113    1
    79    56   114    1
    80    57   115    1
    81    57   116    1
    82    57   117    1
    83    58   118    1
    84    58   119    1
    85    58   120    1
    86    59   121    1
    87    59   122    1
    88    59   123    1
    89    60    61    2
    90     1    47    1
    91     1    62    1
    92     2    63    1
    93     3    64    1
    94     4    65    1
    95     5     6    1
    96     7     8    2
    97     9    78    1
    98    15    79    1
    99    18    80    1
   100    18    81    1
   101    19    82    1
   102    19    83    1
   103    20    23    1
   104    21    84    1
   105    21    85    1
   106    22    86    1
   107    22    87    1
   108    27    45    1
   109    28    34    1
   110    32    58    1
   111    33    46    2
   112    36    51    1
   113    36    66    1
   114    37    52    1
   115    37    67    1
   116    38    53    1
   117    38    68    1
   118    42    48    1
   119    42    72    1
   120    43    44    2
   121    60    73    1
   122    61    74    1
   123    39    69    1
   124    39    57    1
   125    40    70    1
   126    40    50    1
   127    41    71    1
   128    41    49    1
