@<TRIPOS>MOLECULE
*****
 123 128 0 0 0
SMALL
GASTEIGER

@<TRIPOS>ATOM
     1 C         3.758954   0.131488   -3.95277 C.3        1 UNL1     0.0009
     2 C         5.161977   -0.792657   -4.736683 C.2        1 UNL1     -0.0787
     3 C         6.580575   -0.956753   -4.974797 C.2        1 UNL1     -0.0649
     4 C         7.359996   -2.221694   -5.786452 C.2        1 UNL1     -0.0542
     5 C         8.592213   -2.894448   -5.976511 C.2        1 UNL1     0.0115
     6 C         10.11723   -2.828995   -5.687784 C.3        1 UNL1     -0.0348
     7 C         8.582786   -4.367281   -6.614995 C.2        1 UNL1     0.2441
     8 O         8.871562   -4.588028   -7.783073 O.2        1 UNL1     -0.2702
     9 N         8.475593   -5.413104   -5.681767 N.am        1 UNL1     -0.2772
     10 C         7.153273   -5.693389   -5.42441 C.2        1 UNL1     0.1049
     11 C         6.558171   -4.923378   -4.531573 C.2        1 UNL1     0.0801
     12 C         4.965601   -6.144244   -6.550533 C.ar        1 UNL1     0.0753
     13 C         4.407429   -5.142817   -5.693681 C.ar        1 UNL1     0.0305
     14 C         5.158896   -4.594501   -4.566872 C.2        1 UNL1     0.0924
     15 N         7.082974   -4.035357   -3.669872 N.pl3        1 UNL1     -0.3170
     16 C         6.027053   -3.590994   -2.79934 C.3        1 UNL1     0.1275
     17 N         4.770392   -3.744034   -3.620987 N.2        1 UNL1     -0.2557
     18 C         5.918147   -4.606348   -1.665806 C.3        1 UNL1     0.0016
     19 C         7.275748   -4.731452   -0.992858 C.3        1 UNL1     0.0026
     20 N         7.670132   -3.423365   -0.488481 N.3        1 UNL1     -0.3018
     21 C         7.742661   -2.364151   -1.497032 C.3        1 UNL1     0.0026
     22 C         6.367226   -2.2526   -2.157055 C.3        1 UNL1     0.0016
     23 C         8.79505   -3.486208   0.42325 C.3        1 UNL1     0.0012
     24 C         10.120662   -3.432697   -0.352408 C.3        1 UNL1     -0.0339
     25 C         11.206547   -4.280192   0.330719 C.3        1 UNL1     -0.0615
     26 C         9.899316   -3.862678   -1.792166 C.3        1 UNL1     -0.0615
     27 C         4.20255   -6.748684   -7.546788 C.ar        1 UNL1     0.1347
     28 C         2.864759   -6.463966   -7.754876 C.ar        1 UNL1     0.0342
     29 C         2.349867   -5.440017   -6.931725 C.ar        1 UNL1     0.1435
     30 C         3.112269   -4.800107   -5.953727 C.ar        1 UNL1     0.0774
     31 O         1.036303   -5.124548   -6.937689 O.3        1 UNL1     -0.4436
     32 C         0.824412   -4.430417   -5.699077 C.3        1 UNL1     0.3143
     33 C         2.186296   -3.89327   -5.30798 C.2        1 UNL1     0.2504
     34 C         1.922693   -7.244593   -8.628509 C.3        1 UNL1     -0.0327
     35 O         -0.005399   -3.297116   -5.982438 O.2        1 UNL1     -0.4528
     36 C         -2.012262   -2.661071   -2.823952 C.3        1 UNL1     0.0854
     37 C         -1.501293   -2.379841   -1.358571 C.3        1 UNL1     0.0236
     38 C         -2.059081   -1.030344   -0.695643 C.3        1 UNL1     0.1131
     39 C         -1.952006   0.33543   -1.486507 C.3        1 UNL1     0.0200
     40 C         -0.550225   0.734212   -2.297938 C.3        1 UNL1     0.0661
     41 C         1.019374   0.677211   -1.657064 C.3        1 UNL1     0.0091
     42 C         2.623415   0.310718   -2.468321 C.3        1 UNL1     0.0661
     43 C         6.358414   -6.582202   -6.28497 C.2        1 UNL1     0.2131
     44 O         6.809327   -7.651839   -6.652791 O.2        1 UNL1     -0.2851
     45 O         4.834524   -7.680913   -8.367151 O.3        1 UNL1     -0.5056
     46 O         2.448153   -2.922375   -4.633704 O.2        1 UNL1     -0.2836
     47 C         3.498449   1.460902   -4.71091 C.3        1 UNL1     -0.0566
     48 O         3.323491   1.470267   -1.864617 O.3        1 UNL1     -0.3909
     49 C         0.990138   -0.105776   -0.363398 C.3        1 UNL1     -0.0577
     50 O         -0.558039   0.197487   -3.605451 O.3        1 UNL1     -0.3910
     51 O         -2.745809   -1.621304   -3.430769 O.3        1 UNL1     -0.3753
     52 C         -0.02666   -2.858233   -1.154739 C.3        1 UNL1     -0.0564
     53 O         -1.852133   -0.960523   0.789154 O.3        1 UNL1     -0.4608
     54 C         -1.916837   0.17854   1.548284 C.2        1 UNL1     0.3042
     55 O         -2.70002   0.421201   2.46566 O.2        1 UNL1     -0.2512
     56 C         -0.852806   1.185044   1.214364 C.3        1 UNL1     0.0332
     57 C         -3.342235   0.564736   -2.243381 C.3        1 UNL1     -0.0567
     58 C         0.394305   -5.498745   -4.666986 C.3        1 UNL1     0.0210
     59 C         -3.634791   -2.039643   -4.465452 C.3        1 UNL1     0.0372
     60 C         -0.95562   -3.062648   -3.792148 C.2        1 UNL1     -0.0208
     61 C         -0.732429   -2.660754   -5.044111 C.2        1 UNL1     0.0882
     62 H         3.064359   -0.607768   -4.369604 H        1 UNL1     0.0365
     63 H         4.615204   -1.53756   -5.318602 H        1 UNL1     0.0576
     64 H         7.320774   -0.321613   -4.483056 H        1 UNL1     0.0615
     65 H         6.547223   -2.740617   -6.301817 H        1 UNL1     0.0622
     66 H         -2.675001   -3.532041   -2.722784 H        1 UNL1     0.0645
     67 H         -2.004295   -3.148973   -0.747027 H        1 UNL1     0.0362
     68 H         -3.133318   -1.268754   -0.669213 H        1 UNL1     0.0741
     69 H         -2.061206   1.152673   -0.786081 H        1 UNL1     0.0359
     70 H         -0.715966   1.818874   -2.443191 H        1 UNL1     0.0600
     71 H         1.112273   1.714835   -1.280681 H        1 UNL1     0.0348
     72 H         1.930139   0.584285   -3.276927 H        1 UNL1     0.0602
     73 H         -0.402473   -3.874162   -3.388761 H        1 UNL1     0.0628
     74 H         -1.214733   -1.801387   -5.511133 H        1 UNL1     0.1022
     75 H         10.678073   -3.491042   -6.390766 H        1 UNL1     0.0279
     76 H         10.598691   -1.865457   -5.838975 H        1 UNL1     0.0279
     77 H         10.385264   -3.268368   -4.71577 H        1 UNL1     0.0279
     78 H         8.905974   -5.132795   -4.802975 H        1 UNL1     0.1553
     79 H         8.049816   -4.024152   -3.401501 H        1 UNL1     0.1484
     80 H         5.149835   -4.271488   -0.958465 H        1 UNL1     0.0317
     81 H         5.592567   -5.58141   -2.04383 H        1 UNL1     0.0317
     82 H         8.034365   -5.1364   -1.678737 H        1 UNL1     0.0428
     83 H         7.175957   -5.461522   -0.189061 H        1 UNL1     0.0428
     84 H         7.962655   -1.376245   -1.080552 H        1 UNL1     0.0428
     85 H         8.556108   -2.538234   -2.214887 H        1 UNL1     0.0428
     86 H         6.419111   -1.386017   -2.789771 H        1 UNL1     0.0317
     87 H         5.614041   -1.97606   -1.409169 H        1 UNL1     0.0317
     88 H         8.744226   -2.614687   1.088956 H        1 UNL1     0.0429
     89 H         8.743875   -4.379714   1.058705 H        1 UNL1     0.0429
     90 H         10.467238   -2.39355   -0.400064 H        1 UNL1     0.0308
     91 H         10.821249   -5.262665   0.619501 H        1 UNL1     0.0233
     92 H         12.066296   -4.412275   -0.330336 H        1 UNL1     0.0233
     93 H         11.591823   -3.808864   1.242995 H        1 UNL1     0.0233
     94 H         8.831305   -4.016856   -1.980365 H        1 UNL1     0.0233
     95 H         10.252614   -3.083481   -2.473337 H        1 UNL1     0.0233
     96 H         10.427623   -4.793598   -2.016325 H        1 UNL1     0.0233
     97 H         2.042847   -6.998312   -9.67929 H        1 UNL1     0.0280
     98 H         2.088952   -8.327117   -8.55264 H        1 UNL1     0.0280
     99 H         0.882274   -7.024089   -8.33868 H        1 UNL1     0.0280
     100 H         4.273724   -8.083398   -9.006785 H        1 UNL1     0.2922
     101 H         3.529014   1.283294   -5.785702 H        1 UNL1     0.0236
     102 H         4.169613   2.264606   -4.409939 H        1 UNL1     0.0236
     103 H         2.485894   1.854408   -4.520965 H        1 UNL1     0.0236
     104 H         3.001469   2.275967   -2.314195 H        1 UNL1     0.2098
     105 H         1.191237   -1.168094   -0.476759 H        1 UNL1     0.0234
     106 H         1.603001   0.311584   0.435437 H        1 UNL1     0.0234
     107 H         0.0   0.0   0.0 H        1 UNL1     0.0234
     108 H         -1.454968   0.330404   -3.968245 H        1 UNL1     0.2098
     109 H         0.431107   -2.423523   -0.25519 H        1 UNL1     0.0234
     110 H         0.071905   -3.948727   -1.125552 H        1 UNL1     0.0234
     111 H         0.616506   -2.555119   -1.991642 H        1 UNL1     0.0234
     112 H         -1.288861   2.18779   1.173105 H        1 UNL1     0.0342
     113 H         -0.020716   1.1494   1.915934 H        1 UNL1     0.0342
     114 H         -0.457566   0.948374   0.216898 H        1 UNL1     0.0342
     115 H         -3.246416   1.290766   -3.062458 H        1 UNL1     0.0234
     116 H         -3.775849   -0.346098   -2.661006 H        1 UNL1     0.0234
     117 H         -4.109488   1.050777   -1.616462 H        1 UNL1     0.0234
     118 H         -0.703848   -5.58892   -4.596742 H        1 UNL1     0.0309
     119 H         0.822686   -6.486066   -4.866709 H        1 UNL1     0.0309
     120 H         0.692348   -5.239965   -3.645071 H        1 UNL1     0.0309
     121 H         -4.634521   -2.10099   -4.036344 H        1 UNL1     0.0524
     122 H         -3.675036   -1.319   -5.299174 H        1 UNL1     0.0524
     123 H         -3.332488   -3.008985   -4.851564 H        1 UNL1     0.0524
@<TRIPOS>BOND
     1     1     2    1
     2     1    42    1
     3     2     3    2
     4     3     4    1
     5     4     5    2
     6     5     7    1
     7     6    75    1
     8     6    76    1
     9     6    77    1
    10     7     9   am
    11     9    10    1
    12    10    11    2
    13    10    43    1
    14    11    14    1
    15    11    15    1
    16    12    13   ar
    17    12    27   ar
    18    12    43    1
    19    13    14    1
    20    13    30   ar
    21    14    17    2
    22    15    16    1
    23    16    17    1
    24    16    18    1
    25    16    22    1
    26    18    19    1
    27    19    20    1
    28    20    21    1
    29    21    22    1
    30    23    24    1
    31    23    88    1
    32    23    89    1
    33    24    25    1
    34    24    26    1
    35    24    90    1
    36    25    91    1
    37    25    92    1
    38    25    93    1
    39    26    94    1
    40    26    95    1
    41    26    96    1
    42    27    28   ar
    43    28    29   ar
    44    29    30   ar
    45    29    31    1
    46    30    33    1
    47    31    32    1
    48    32    33    1
    49    32    35    1
    50    34    97    1
    51    34    98    1
    52    34    99    1
    53    35    61    1
    54    36    37    1
    55    36    60    1
    56    37    38    1
    57    38    39    1
    58    39    40    1
    59    40    41    1
    60    41    42    1
    61    45   100    1
    62    47   101    1
    63    47   102    1
    64    47   103    1
    65    48   104    1
    66    49   105    1
    67    49   106    1
    68    49   107    1
    69    50   108    1
    70    51    59    1
    71    52   109    1
    72    52   110    1
    73    52   111    1
    74    53    54    1
    75    54    55    2
    76    54    56    1
    77    56   112    1
    78    56   113    1
    79    56   114    1
    80    57   115    1
    81    57   116    1
    82    57   117    1
    83    58   118    1
    84    58   119    1
    85    58   120    1
    86    59   121    1
    87    59   122    1
    88    59   123    1
    89    60    61    2
    90     1    47    1
    91     1    62    1
    92     2    63    1
    93     3    64    1
    94     4    65    1
    95     5     6    1
    96     7     8    2
    97     9    78    1
    98    15    79    1
    99    18    80    1
   100    18    81    1
   101    19    82    1
   102    19    83    1
   103    20    23    1
   104    21    84    1
   105    21    85    1
   106    22    86    1
   107    22    87    1
   108    27    45    1
   109    28    34    1
   110    32    58    1
   111    33    46    2
   112    36    51    1
   113    36    66    1
   114    37    52    1
   115    37    67    1
   116    38    53    1
   117    38    68    1
   118    42    48    1
   119    42    72    1
   120    43    44    2
   121    60    73    1
   122    61    74    1
   123    39    69    1
   124    39    57    1
   125    40    70    1
   126    40    50    1
   127    41    71    1
   128    41    49    1
