@<TRIPOS>MOLECULE
*****
 123 128 0 0 0
SMALL
GASTEIGER

@<TRIPOS>ATOM
     1 C         2.218261   3.523199   2.443701 C.3        1 UNL1     0.0009
     2 C         2.818041   5.216912   1.986931 C.2        1 UNL1     -0.0787
     3 C         3.902871   6.157391   1.800683 C.2        1 UNL1     -0.0649
     4 C         3.821401   7.730196   1.17939 C.2        1 UNL1     -0.0542
     5 C         4.560296   8.785207   0.589419 C.2        1 UNL1     0.0115
     6 C         5.993793   9.281021   0.253896 C.3        1 UNL1     -0.0348
     7 C         3.770706   9.946323   -0.188621 C.2        1 UNL1     0.2441
     8 O         3.564083   11.050447   0.295882 O.2        1 UNL1     -0.2702
     9 N         3.561344   9.701353   -1.556944 N.am        1 UNL1     -0.2772
     10 C         2.390791   9.003277   -1.746204 C.2        1 UNL1     0.1049
     11 C         2.462214   7.693836   -1.589731 C.2        1 UNL1     0.0801
     12 C         -0.031022   8.984711   -1.120258 C.ar        1 UNL1     0.0753
     13 C         0.152004   7.610355   -0.764931 C.ar        1 UNL1     0.0305
     14 C         1.372548   6.886161   -1.112587 C.2        1 UNL1     0.0924
     15 N         3.537044   6.894465   -1.47894 N.pl3        1 UNL1     -0.3170
     16 C         3.075423   5.53187   -1.501177 C.3        1 UNL1     0.1275
     17 N         1.670752   5.599819   -0.953451 N.2        1 UNL1     -0.2557
     18 C         2.939858   5.124225   -2.965127 C.3        1 UNL1     0.0016
     19 C         4.275207   5.346049   -3.657388 C.3        1 UNL1     0.0026
     20 N         5.289908   4.548083   -2.983101 N.3        1 UNL1     -0.3018
     21 C         5.450819   4.825372   -1.55426 C.3        1 UNL1     0.0026
     22 C         4.098823   4.59179   -0.877918 C.3        1 UNL1     0.0016
     23 C         6.524332   4.451924   -3.73649 C.3        1 UNL1     0.0012
     24 C         6.326196   3.579368   -4.985948 C.3        1 UNL1     -0.0339
     25 C         7.596527   2.780736   -5.321361 C.3        1 UNL1     -0.0615
     26 C         5.125746   2.667803   -4.799539 C.3        1 UNL1     -0.0615
     27 C         -1.242413   9.633693   -0.893381 C.ar        1 UNL1     0.1347
     28 C         -2.350972   9.003879   -0.356276 C.ar        1 UNL1     0.0342
     29 C         -2.132365   7.664675   0.030902 C.ar        1 UNL1     0.1435
     30 C         -0.913341   7.012064   -0.156982 C.ar        1 UNL1     0.0774
     31 O         -3.144049   6.883288   0.467867 O.3        1 UNL1     -0.4436
     32 C         -2.662435   5.540917   0.303671 C.3        1 UNL1     0.3143
     33 C         -1.151757   5.659494   0.301797 C.2        1 UNL1     0.2504
     34 C         -3.747514   9.559033   -0.316589 C.3        1 UNL1     -0.0327
     35 O         -3.022227   4.811948   1.483674 O.2        1 UNL1     -0.4528
     36 C         -3.5065   1.213577   0.376744 C.3        1 UNL1     0.0854
     37 C         -2.491739   0.249716   -0.35041 C.3        1 UNL1     0.0236
     38 C         -2.232641   -1.146103   0.395445 C.3        1 UNL1     0.1131
     39 C         -1.852464   -1.157115   1.930897 C.3        1 UNL1     0.0200
     40 C         -0.741718   -0.068613   2.534094 C.3        1 UNL1     0.0661
     41 C         0.793319   0.247423   1.884947 C.3        1 UNL1     0.0091
     42 C         1.777499   1.795312   1.856084 C.3        1 UNL1     0.0661
     43 C         1.082876   9.671269   -1.820349 C.2        1 UNL1     0.2131
     44 O         0.934906   10.665851   -2.507116 O.2        1 UNL1     -0.2851
     45 O         -1.322961   10.984279   -1.226349 O.3        1 UNL1     -0.5056
     46 O         -0.330515   4.831483   0.627087 O.2        1 UNL1     -0.2836
     47 C         2.277139   3.327083   3.982549 C.3        1 UNL1     -0.0566
     48 O         3.029008   1.142576   2.310813 O.3        1 UNL1     -0.3909
     49 C         0.868585   -0.349236   0.497206 C.3        1 UNL1     -0.0577
     50 O         -1.372809   1.143625   2.894546 O.3        1 UNL1     -0.3910
     51 O         -3.922194   0.813563   1.663064 O.3        1 UNL1     -0.3753
     52 C         -1.342625   1.040479   -1.056938 C.3        1 UNL1     -0.0564
     53 O         -1.557415   -2.17178   -0.467332 O.3        1 UNL1     -0.4608
     54 C         -1.365335   -2.070578   -1.820401 C.2        1 UNL1     0.3042
     55 O         -2.173844   -1.682042   -2.662535 O.2        1 UNL1     -0.2512
     56 C         0.024043   -2.435907   -2.259577 C.3        1 UNL1     0.0332
     57 C         -3.201479   -1.382192   2.760157 C.3        1 UNL1     -0.0567
     58 C         -3.128187   5.077263   -1.096196 C.3        1 UNL1     0.0210
     59 C         -5.181186   1.341884   2.077408 C.3        1 UNL1     0.0372
     60 C         -3.05827   2.628207   0.491081 C.2        1 UNL1     -0.0208
     61 C         -3.102929   3.468193   1.526056 C.2        1 UNL1     0.0882
     62 H         1.195956   3.84251   2.20781 H        1 UNL1     0.0365
     63 H         1.86897   5.732074   1.824628 H        1 UNL1     0.0576
     64 H         4.947229   5.854223   1.903217 H        1 UNL1     0.0615
     65 H         2.752673   7.96068   1.19285 H        1 UNL1     0.0622
     66 H         -4.389499   1.229223   -0.277561 H        1 UNL1     0.0645
     67 H         -3.035512   -0.081014   -1.252346 H        1 UNL1     0.0362
     68 H         -3.245501   -1.573702   0.342572 H        1 UNL1     0.0741
     69 H         -1.403768   -2.111676   2.171504 H        1 UNL1     0.0359
     70 H         -0.503745   -0.554357   3.499745 H        1 UNL1     0.0600
     71 H         1.400855   -0.47472   2.464918 H        1 UNL1     0.0348
     72 H         1.031228   1.925268   2.653271 H        1 UNL1     0.0602
     73 H         -2.772736   2.982711   -0.468109 H        1 UNL1     0.0628
     74 H         -3.328574   3.172273   2.551119 H        1 UNL1     0.1022
     75 H         6.749882   8.503625   0.520388 H        1 UNL1     0.0279
     76 H         6.209387   9.467376   -0.795799 H        1 UNL1     0.0279
     77 H         6.31292   10.120484   0.888846 H        1 UNL1     0.0279
     78 H         4.320854   9.130672   -1.922383 H        1 UNL1     0.1553
     79 H         4.460897   7.160304   -1.766618 H        1 UNL1     0.1484
     80 H         2.631865   4.072906   -3.016461 H        1 UNL1     0.0317
     81 H         2.155559   5.705231   -3.462075 H        1 UNL1     0.0317
     82 H         4.554023   6.409973   -3.672814 H        1 UNL1     0.0428
     83 H         4.155632   5.050804   -4.700261 H        1 UNL1     0.0428
     84 H         6.161173   4.158806   -1.055362 H        1 UNL1     0.0428
     85 H         5.85774   5.83037   -1.376181 H        1 UNL1     0.0428
     86 H         4.284826   4.673391   0.176943 H        1 UNL1     0.0317
     87 H         3.793741   3.545504   -1.00164 H        1 UNL1     0.0317
     88 H         6.808144   5.462711   -4.057513 H        1 UNL1     0.0429
     89 H         7.343315   4.070653   -3.113054 H        1 UNL1     0.0429
     90 H         6.083363   4.22372   -5.83921 H        1 UNL1     0.0308
     91 H         8.405291   3.439851   -5.650861 H        1 UNL1     0.0233
     92 H         7.932224   2.206894   -4.4544 H        1 UNL1     0.0233
     93 H         7.432113   2.052683   -6.124942 H        1 UNL1     0.0233
     94 H         4.612136   2.9066   -3.861981 H        1 UNL1     0.0233
     95 H         4.416075   2.812275   -5.618964 H        1 UNL1     0.0233
     96 H         5.423851   1.615973   -4.772065 H        1 UNL1     0.0233
     97 H         -3.838656   10.382999   0.384841 H        1 UNL1     0.0280
     98 H         -4.062518   9.956867   -1.290117 H        1 UNL1     0.0280
     99 H         -4.451059   8.766831   -0.012392 H        1 UNL1     0.0280
     100 H         -0.615742   11.511292   -0.898142 H        1 UNL1     0.2922
     101 H         3.311107   3.183735   4.295624 H        1 UNL1     0.0236
     102 H         1.627646   2.527818   4.337963 H        1 UNL1     0.0236
     103 H         1.941634   4.22515   4.527621 H        1 UNL1     0.0236
     104 H         3.675605   1.203533   1.58063 H        1 UNL1     0.2098
     105 H         1.73294   -0.033022   -0.081335 H        1 UNL1     0.0234
     106 H         0.766444   -1.433779   0.461676 H        1 UNL1     0.0234
     107 H         0.0   0.0   0.0 H        1 UNL1     0.0234
     108 H         -1.31501   1.223039   3.866205 H        1 UNL1     0.2098
     109 H         -1.602504   1.319854   -2.087532 H        1 UNL1     0.0234
     110 H         -1.030292   1.932418   -0.50319 H        1 UNL1     0.0234
     111 H         -0.426168   0.440355   -1.133766 H        1 UNL1     0.0234
     112 H         0.685186   -1.569503   -2.161695 H        1 UNL1     0.0342
     113 H         0.41588   -3.290451   -1.709977 H        1 UNL1     0.0342
     114 H         -0.013613   -2.71245   -3.322249 H        1 UNL1     0.0342
     115 H         -3.517137   -0.468487   3.282356 H        1 UNL1     0.0234
     116 H         -4.043778   -1.721628   2.15405 H        1 UNL1     0.0234
     117 H         -3.086501   -2.081982   3.605744 H        1 UNL1     0.0234
     118 H         -4.091042   4.53851   -1.055414 H        1 UNL1     0.0309
     119 H         -3.20716   5.897856   -1.816329 H        1 UNL1     0.0309
     120 H         -2.447799   4.344933   -1.544382 H        1 UNL1     0.0309
     121 H         -5.011351   2.357523   2.433765 H        1 UNL1     0.0524
     122 H         -5.904965   1.398002   1.247329 H        1 UNL1     0.0524
     123 H         -5.601963   0.731499   2.871431 H        1 UNL1     0.0524
@<TRIPOS>BOND
     1     1     2    1
     2     1    42    1
     3     2     3    2
     4     3     4    1
     5     4     5    2
     6     5     7    1
     7     6    75    1
     8     6    76    1
     9     6    77    1
    10     7     9   am
    11     9    10    1
    12    10    11    2
    13    10    43    1
    14    11    14    1
    15    11    15    1
    16    12    13   ar
    17    12    27   ar
    18    12    43    1
    19    13    14    1
    20    13    30   ar
    21    14    17    2
    22    15    16    1
    23    16    17    1
    24    16    18    1
    25    16    22    1
    26    18    19    1
    27    19    20    1
    28    20    21    1
    29    21    22    1
    30    23    24    1
    31    23    88    1
    32    23    89    1
    33    24    25    1
    34    24    26    1
    35    24    90    1
    36    25    91    1
    37    25    92    1
    38    25    93    1
    39    26    94    1
    40    26    95    1
    41    26    96    1
    42    27    28   ar
    43    28    29   ar
    44    29    30   ar
    45    29    31    1
    46    30    33    1
    47    31    32    1
    48    32    33    1
    49    32    35    1
    50    34    97    1
    51    34    98    1
    52    34    99    1
    53    35    61    1
    54    36    37    1
    55    36    60    1
    56    37    38    1
    57    38    39    1
    58    39    40    1
    59    40    41    1
    60    41    42    1
    61    45   100    1
    62    47   101    1
    63    47   102    1
    64    47   103    1
    65    48   104    1
    66    49   105    1
    67    49   106    1
    68    49   107    1
    69    50   108    1
    70    51    59    1
    71    52   109    1
    72    52   110    1
    73    52   111    1
    74    53    54    1
    75    54    55    2
    76    54    56    1
    77    56   112    1
    78    56   113    1
    79    56   114    1
    80    57   115    1
    81    57   116    1
    82    57   117    1
    83    58   118    1
    84    58   119    1
    85    58   120    1
    86    59   121    1
    87    59   122    1
    88    59   123    1
    89    60    61    2
    90     1    47    1
    91     1    62    1
    92     2    63    1
    93     3    64    1
    94     4    65    1
    95     5     6    1
    96     7     8    2
    97     9    78    1
    98    15    79    1
    99    18    80    1
   100    18    81    1
   101    19    82    1
   102    19    83    1
   103    20    23    1
   104    21    84    1
   105    21    85    1
   106    22    86    1
   107    22    87    1
   108    27    45    1
   109    28    34    1
   110    32    58    1
   111    33    46    2
   112    36    51    1
   113    36    66    1
   114    37    52    1
   115    37    67    1
   116    38    53    1
   117    38    68    1
   118    42    48    1
   119    42    72    1
   120    43    44    2
   121    60    73    1
   122    61    74    1
   123    39    69    1
   124    39    57    1
   125    40    70    1
   126    40    50    1
   127    41    71    1
   128    41    49    1
