@<TRIPOS>MOLECULE
*****
 123 128 0 0 0
SMALL
GASTEIGER

@<TRIPOS>ATOM
     1 C         4.602032   2.834774   0.670429 C.3        1 UNL1     0.0009
     2 C         5.63609   4.2124   -0.015069 C.2        1 UNL1     -0.0787
     3 C         6.818473   4.666144   -0.71659 C.2        1 UNL1     -0.0649
     4 C         7.199892   6.242777   -1.201468 C.2        1 UNL1     -0.0542
     5 C         7.988863   7.029578   -2.076423 C.2        1 UNL1     0.0115
     6 C         9.169092   6.986436   -3.085642 C.3        1 UNL1     -0.0348
     7 C         7.567171   8.5555   -2.342372 C.2        1 UNL1     0.2441
     8 O         8.13016   9.503489   -1.812385 O.2        1 UNL1     -0.2702
     9 N         6.684295   8.743301   -3.42006 N.am        1 UNL1     -0.2772
     10 C         5.379797   8.627386   -2.997956 C.2        1 UNL1     0.1049
     11 C         4.904281   7.398586   -2.907638 C.2        1 UNL1     0.0801
     12 C         3.787604   9.414277   -1.236407 C.ar        1 UNL1     0.0753
     13 C         3.456756   8.036966   -1.031077 C.ar        1 UNL1     0.0305
     14 C         3.90864   6.996045   -1.951585 C.2        1 UNL1     0.0924
     15 N         5.413882   6.239773   -3.359287 N.pl3        1 UNL1     -0.3170
     16 C         4.424442   5.215333   -3.154875 C.3        1 UNL1     0.1275
     17 N         3.619307   5.698066   -1.97316 N.2        1 UNL1     -0.2557
     18 C         3.481161   5.252162   -4.353443 C.3        1 UNL1     0.0016
     19 C         4.301403   5.088344   -5.623071 C.3        1 UNL1     0.0026
     20 N         5.016441   3.821266   -5.557788 N.3        1 UNL1     -0.3018
     21 C         5.903829   3.666921   -4.403193 C.3        1 UNL1     0.0026
     22 C         5.058303   3.830589   -3.138996 C.3        1 UNL1     0.0016
     23 C         5.586093   3.428924   -6.831447 C.3        1 UNL1     0.0012
     24 C         4.477165   3.026461   -7.816363 C.3        1 UNL1     -0.0339
     25 C         4.084976   4.198388   -8.731149 C.3        1 UNL1     -0.0615
     26 C         4.909043   1.811324   -8.618673 C.3        1 UNL1     -0.0615
     27 C         3.254481   10.413293   -0.425318 C.ar        1 UNL1     0.1347
     28 C         2.352541   10.162082   0.593234 C.ar        1 UNL1     0.0342
     29 C         2.079357   8.794509   0.808364 C.ar        1 UNL1     0.1435
     30 C         2.634059   7.780058   0.027074 C.ar        1 UNL1     0.0774
     31 O         1.137839   8.394194   1.690576 O.3        1 UNL1     -0.4436
     32 C         0.819838   7.050768   1.296933 C.3        1 UNL1     0.3143
     33 C         2.035165   6.563207   0.534387 C.2        1 UNL1     0.2504
     34 C         1.550628   11.19466   1.335405 C.3        1 UNL1     -0.0327
     35 O         0.734716   6.265425   2.492442 O.2        1 UNL1     -0.4528
     36 C         -1.780093   3.519092   1.756589 C.3        1 UNL1     0.0854
     37 C         -1.765382   2.435658   0.610519 C.3        1 UNL1     0.0236
     38 C         -1.873584   0.917121   1.114586 C.3        1 UNL1     0.1131
     39 C         -0.902207   0.395232   2.24875 C.3        1 UNL1     0.0200
     40 C         0.719647   0.783836   2.216877 C.3        1 UNL1     0.0661
     41 C         1.75585   0.615127   0.884425 C.3        1 UNL1     0.0091
     42 C         3.209335   1.611062   0.373641 C.3        1 UNL1     0.0661
     43 C         4.647048   9.752332   -2.398016 C.2        1 UNL1     0.2131
     44 O         4.68314   10.856654   -2.909784 O.2        1 UNL1     -0.2851
     45 O         3.663209   11.723944   -0.66317 O.3        1 UNL1     -0.5056
     46 O         2.432172   5.42787   0.39564 O.2        1 UNL1     -0.2836
     47 C         5.242982   2.273774   1.96829 C.3        1 UNL1     -0.0566
     48 O         4.075245   0.431914   0.130895 O.3        1 UNL1     -0.3909
     49 C         0.922033   0.383149   -0.355909 C.3        1 UNL1     -0.0577
     50 O         0.950478   2.023952   2.854493 O.3        1 UNL1     -0.3910
     51 O         -1.710074   3.02295   3.074303 O.3        1 UNL1     -0.3753
     52 C         -0.833963   2.854013   -0.573705 C.3        1 UNL1     -0.0564
     53 O         -2.208751   -0.055841   0.022187 O.3        1 UNL1     -0.4608
     54 C         -1.997782   -1.409024   0.070332 C.2        1 UNL1     0.3042
     55 O         -1.192546   -2.063366   -0.590933 O.2        1 UNL1     -0.2512
     56 C         -2.832368   -2.111428   1.103195 C.3        1 UNL1     0.0332
     57 C         -1.673418   0.529158   3.643552 C.3        1 UNL1     -0.0567
     58 C         -0.374502   7.152374   0.319816 C.3        1 UNL1     0.0210
     59 C         -2.327785   3.849629   4.059645 C.3        1 UNL1     0.0372
     60 C         -0.736072   4.573278   1.638809 C.2        1 UNL1     -0.0208
     61 C         0.075651   5.092838   2.560714 C.2        1 UNL1     0.0882
     62 H         3.857069   3.575854   0.984343 H        1 UNL1     0.0365
     63 H         5.069997   5.081392   0.326779 H        1 UNL1     0.0576
     64 H         7.528385   3.962256   -1.156674 H        1 UNL1     0.0615
     65 H         6.489601   6.864234   -0.649418 H        1 UNL1     0.0622
     66 H         -2.743501   4.034424   1.636902 H        1 UNL1     0.0645
     67 H         -2.736975   2.568405   0.103621 H        1 UNL1     0.0362
     68 H         -2.872078   0.94743   1.576768 H        1 UNL1     0.0741
     69 H         -0.887441   -0.686235   2.223873 H        1 UNL1     0.0359
     70 H         1.110231   0.030505   2.927508 H        1 UNL1     0.0600
     71 H         2.150485   -0.402347   1.074073 H        1 UNL1     0.0348
     72 H         3.050109   1.831349   1.43921 H        1 UNL1     0.0602
     73 H         -0.781315   5.002811   0.668911 H        1 UNL1     0.0628
     74 H         0.22315   4.676285   3.557692 H        1 UNL1     0.1022
     75 H         9.564965   5.946678   -3.181672 H        1 UNL1     0.0279
     76 H         8.935824   7.244401   -4.116229 H        1 UNL1     0.0279
     77 H         10.057747   7.52422   -2.724005 H        1 UNL1     0.0279
     78 H         6.844048   8.024111   -4.122428 H        1 UNL1     0.1553
     79 H         6.11807   6.181121   -4.071756 H        1 UNL1     0.1484
     80 H         2.739575   4.450901   -4.24953 H        1 UNL1     0.0317
     81 H         2.922882   6.194017   -4.383216 H        1 UNL1     0.0317
     82 H         4.996586   5.928043   -5.769837 H        1 UNL1     0.0428
     83 H         3.609525   5.119305   -6.465328 H        1 UNL1     0.0428
     84 H         6.366892   2.67761   -4.335024 H        1 UNL1     0.0428
     85 H         6.756731   4.358211   -4.447847 H        1 UNL1     0.0428
     86 H         5.708691   3.580826   -2.321316 H        1 UNL1     0.0317
     87 H         4.289014   3.04976   -3.099029 H        1 UNL1     0.0317
     88 H         6.12462   4.291634   -7.244986 H        1 UNL1     0.0429
     89 H         6.31894   2.621078   -6.708594 H        1 UNL1     0.0429
     90 H         3.591346   2.712941   -7.251346 H        1 UNL1     0.0308
     91 H         4.94769   4.572074   -9.290777 H        1 UNL1     0.0233
     92 H         3.305327   3.895607   -9.434057 H        1 UNL1     0.0233
     93 H         3.677548   5.048025   -8.169942 H        1 UNL1     0.0233
     94 H         4.21176   1.637201   -9.445301 H        1 UNL1     0.0233
     95 H         5.902144   1.978718   -9.044928 H        1 UNL1     0.0233
     96 H         4.938869   0.912401   -7.996567 H        1 UNL1     0.0233
     97 H         0.883288   10.745362   2.064802 H        1 UNL1     0.0280
     98 H         2.188831   11.88782   1.89886 H        1 UNL1     0.0280
     99 H         0.94247   11.773213   0.620901 H        1 UNL1     0.0280
     100 H         2.960328   12.334404   -0.800718 H        1 UNL1     0.2922
     101 H         4.605954   1.494289   2.385729 H        1 UNL1     0.0236
     102 H         5.476318   3.04666   2.699854 H        1 UNL1     0.0236
     103 H         6.205696   1.773024   1.77176 H        1 UNL1     0.0236
     104 H         4.592454   0.273247   0.944707 H        1 UNL1     0.2098
     105 H         0.709721   1.282225   -0.928969 H        1 UNL1     0.0234
     106 H         1.291498   -0.404696   -1.012204 H        1 UNL1     0.0234
     107 H         0.0   -0.0   0.0 H        1 UNL1     0.0234
     108 H         0.496371   2.709801   2.328028 H        1 UNL1     0.2098
     109 H         0.206844   3.000222   -0.252683 H        1 UNL1     0.0234
     110 H         -0.863161   2.15114   -1.413265 H        1 UNL1     0.0234
     111 H         -1.145738   3.809731   -1.015685 H        1 UNL1     0.0234
     112 H         -2.610421   -3.182885   1.095165 H        1 UNL1     0.0342
     113 H         -2.692457   -1.690889   2.097889 H        1 UNL1     0.0342
     114 H         -3.889983   -1.984555   0.833902 H        1 UNL1     0.0342
     115 H         -2.606651   -0.050669   3.651542 H        1 UNL1     0.0234
     116 H         -1.084829   0.215945   4.508138 H        1 UNL1     0.0234
     117 H         -2.052973   1.546562   3.840452 H        1 UNL1     0.0234
     118 H         -1.339174   7.231491   0.850998 H        1 UNL1     0.0309
     119 H         -0.283919   7.985642   -0.384216 H        1 UNL1     0.0309
     120 H         -0.495711   6.251106   -0.291029 H        1 UNL1     0.0309
     121 H         -1.800691   4.803289   4.067396 H        1 UNL1     0.0524
     122 H         -3.385836   4.056993   3.828202 H        1 UNL1     0.0524
     123 H         -2.26626   3.379394   5.036983 H        1 UNL1     0.0524
@<TRIPOS>BOND
     1     1     2    1
     2     1    42    1
     3     2     3    2
     4     3     4    1
     5     4     5    2
     6     5     7    1
     7     6    75    1
     8     6    76    1
     9     6    77    1
    10     7     9   am
    11     9    10    1
    12    10    11    2
    13    10    43    1
    14    11    14    1
    15    11    15    1
    16    12    13   ar
    17    12    27   ar
    18    12    43    1
    19    13    14    1
    20    13    30   ar
    21    14    17    2
    22    15    16    1
    23    16    17    1
    24    16    18    1
    25    16    22    1
    26    18    19    1
    27    19    20    1
    28    20    21    1
    29    21    22    1
    30    23    24    1
    31    23    88    1
    32    23    89    1
    33    24    25    1
    34    24    26    1
    35    24    90    1
    36    25    91    1
    37    25    92    1
    38    25    93    1
    39    26    94    1
    40    26    95    1
    41    26    96    1
    42    27    28   ar
    43    28    29   ar
    44    29    30   ar
    45    29    31    1
    46    30    33    1
    47    31    32    1
    48    32    33    1
    49    32    35    1
    50    34    97    1
    51    34    98    1
    52    34    99    1
    53    35    61    1
    54    36    37    1
    55    36    60    1
    56    37    38    1
    57    38    39    1
    58    39    40    1
    59    40    41    1
    60    41    42    1
    61    45   100    1
    62    47   101    1
    63    47   102    1
    64    47   103    1
    65    48   104    1
    66    49   105    1
    67    49   106    1
    68    49   107    1
    69    50   108    1
    70    51    59    1
    71    52   109    1
    72    52   110    1
    73    52   111    1
    74    53    54    1
    75    54    55    2
    76    54    56    1
    77    56   112    1
    78    56   113    1
    79    56   114    1
    80    57   115    1
    81    57   116    1
    82    57   117    1
    83    58   118    1
    84    58   119    1
    85    58   120    1
    86    59   121    1
    87    59   122    1
    88    59   123    1
    89    60    61    2
    90     1    47    1
    91     1    62    1
    92     2    63    1
    93     3    64    1
    94     4    65    1
    95     5     6    1
    96     7     8    2
    97     9    78    1
    98    15    79    1
    99    18    80    1
   100    18    81    1
   101    19    82    1
   102    19    83    1
   103    20    23    1
   104    21    84    1
   105    21    85    1
   106    22    86    1
   107    22    87    1
   108    27    45    1
   109    28    34    1
   110    32    58    1
   111    33    46    2
   112    36    51    1
   113    36    66    1
   114    37    52    1
   115    37    67    1
   116    38    53    1
   117    38    68    1
   118    42    48    1
   119    42    72    1
   120    43    44    2
   121    60    73    1
   122    61    74    1
   123    39    69    1
   124    39    57    1
   125    40    70    1
   126    40    50    1
   127    41    71    1
   128    41    49    1
