@<TRIPOS>MOLECULE
*****
 123 128 0 0 0
SMALL
GASTEIGER

@<TRIPOS>ATOM
     1 C         5.167037   1.749417   0.490447 C.3        1 UNL1     0.0009
     2 C         6.603302   2.556204   -0.360009 C.2        1 UNL1     -0.0787
     3 C         7.884972   2.458575   -1.026219 C.2        1 UNL1     -0.0649
     4 C         8.761956   3.694234   -1.781469 C.2        1 UNL1     -0.0542
     5 C         9.781616   3.987532   -2.720271 C.2        1 UNL1     0.0115
     6 C         10.909629   3.362721   -3.586598 C.3        1 UNL1     -0.0348
     7 C         9.876499   5.471114   -3.326051 C.2        1 UNL1     0.2441
     8 O         10.700371   6.292708   -2.948236 O.2        1 UNL1     -0.2702
     9 N         9.125848   5.678551   -4.496369 N.am        1 UNL1     -0.2772
     10 C         7.843173   6.064854   -4.181985 C.2        1 UNL1     0.1049
     11 C         6.997651   5.093149   -3.890262 C.2        1 UNL1     0.0801
     12 C         6.544985   7.670565   -2.76999 C.ar        1 UNL1     0.0753
     13 C         5.786269   6.542293   -2.32282 C.ar        1 UNL1     0.0305
     14 C         5.903204   5.236941   -2.968912 C.2        1 UNL1     0.0924
     15 N         7.120442   3.764273   -4.05007 N.pl3        1 UNL1     -0.3170
     16 C         5.85079   3.164728   -3.735772 C.3        1 UNL1     0.1275
     17 N         5.214559   4.119354   -2.755149 N.2        1 UNL1     -0.2557
     18 C         4.997506   3.224298   -4.999124 C.3        1 UNL1     0.0016
     19 C         5.752123   2.540909   -6.128338 C.3        1 UNL1     0.0026
     20 N         6.022628   1.162657   -5.743273 N.3        1 UNL1     -0.3018
     21 C         6.78643   1.00176   -4.504286 C.3        1 UNL1     0.0026
     22 C         6.007946   1.691577   -3.382676 C.3        1 UNL1     0.0016
     23 C         6.466899   0.34376   -6.853532 C.3        1 UNL1     0.0012
     24 C         5.311165   0.094589   -7.835341 C.3        1 UNL1     -0.0339
     25 C         5.336157   1.098365   -8.999757 C.3        1 UNL1     -0.0615
     26 C         5.350635   -1.339858   -8.332919 C.3        1 UNL1     -0.0615
     27 C         6.340292   8.93795   -2.22966 C.ar        1 UNL1     0.1347
     28 C         5.381513   9.206847   -1.269198 C.ar        1 UNL1     0.0342
     29 C         4.680298   8.072044   -0.809105 C.ar        1 UNL1     0.1435
     30 C         4.899787   6.790311   -1.315272 C.ar        1 UNL1     0.0774
     31 O         3.639577   8.185001   0.044796 O.3        1 UNL1     -0.4436
     32 C         2.91806   6.952132   -0.097744 C.3        1 UNL1     0.3143
     33 C         3.931344   5.959467   -0.630742 C.2        1 UNL1     0.2504
     34 C         4.934593   10.572652   -0.827679 C.3        1 UNL1     -0.0327
     35 O         2.557947   6.514705   1.218397 O.2        1 UNL1     -0.4528
     36 C         -0.684908   4.582171   0.821799 C.3        1 UNL1     0.0854
     37 C         -0.990309   3.321987   -0.076082 C.3        1 UNL1     0.0236
     38 C         -1.590381   2.060445   0.711427 C.3        1 UNL1     0.1131
     39 C         -0.864085   1.52898   2.012314 C.3        1 UNL1     0.0200
     40 C         0.797146   1.383695   2.052837 C.3        1 UNL1     0.0661
     41 C         1.756242   0.615613   0.883309 C.3        1 UNL1     0.0091
     42 C         3.463573   0.978742   0.318897 C.3        1 UNL1     0.0661
     43 C         7.494675   7.463585   -3.891376 C.2        1 UNL1     0.2131
     44 O         7.894158   8.36209   -4.609596 O.2        1 UNL1     -0.2851
     45 O         7.152226   9.973423   -2.687913 O.3        1 UNL1     -0.5056
     46 O         3.947581   4.75587   -0.500571 O.2        1 UNL1     -0.2836
     47 C         5.56397   1.31929   1.928298 C.3        1 UNL1     -0.0566
     48 O         3.912402   -0.432329   0.399824 O.3        1 UNL1     -0.3909
     49 C         0.921663   0.3835   -0.356488 C.3        1 UNL1     -0.0577
     50 O         1.397276   2.601462   2.44604 O.3        1 UNL1     -0.3910
     51 O         -0.808481   4.391784   2.21317 O.3        1 UNL1     -0.3753
     52 C         0.053772   3.162263   -1.229049 C.3        1 UNL1     -0.0564
     53 O         -2.193123   1.021807   -0.188717 O.3        1 UNL1     -0.4608
     54 C         -2.427196   -0.285152   0.150395 C.2        1 UNL1     0.3042
     55 O         -1.858083   -1.28397   -0.288139 O.2        1 UNL1     -0.2512
     56 C         -3.466813   -0.451501   1.221954 C.3        1 UNL1     0.0332
     57 C         -1.584785   2.197229   3.274142 C.3        1 UNL1     -0.0567
     58 C         1.842446   7.197579   -1.181414 C.3        1 UNL1     0.0210
     59 C         -1.121617   5.570371   2.953943 C.3        1 UNL1     0.0372
     60 C         0.643902   5.21159   0.591029 C.2        1 UNL1     -0.0208
     61 C         1.557069   5.646546   1.46033 C.2        1 UNL1     0.0882
     62 H         4.690984   2.733468   0.578366 H        1 UNL1     0.0365
     63 H         6.336916   3.609907   -0.254093 H        1 UNL1     0.0576
     64 H         8.34271   1.49191   -1.247902 H        1 UNL1     0.0615
     65 H         8.274844   4.609379   -1.43403 H        1 UNL1     0.0622
     66 H         -1.429791   5.328728   0.512205 H        1 UNL1     0.0645
     67 H         -1.856124   3.631509   -0.686919 H        1 UNL1     0.0362
     68 H         -2.537399   2.496992   1.063712 H        1 UNL1     0.0741
     69 H         -1.195372   0.517731   2.207337 H        1 UNL1     0.0359
     70 H         0.909342   0.722951   2.933683 H        1 UNL1     0.0600
     71 H         1.800144   -0.405754   1.309735 H        1 UNL1     0.0348
     72 H         3.357957   1.46645   1.298847 H        1 UNL1     0.0602
     73 H         0.761398   5.409366   -0.445469 H        1 UNL1     0.0628
     74 H         1.539937   5.435357   2.530069 H        1 UNL1     0.1022
     75 H         10.954346   2.257375   -3.434136 H        1 UNL1     0.0279
     76 H         10.7956   3.446018   -4.665082 H        1 UNL1     0.0279
     77 H         11.914769   3.667431   -3.260185 H        1 UNL1     0.0279
     78 H         9.063805   4.808848   -5.021579 H        1 UNL1     0.1553
     79 H         7.785564   3.336693   -4.667906 H        1 UNL1     0.1484
     80 H         4.036375   2.733111   -4.804887 H        1 UNL1     0.0317
     81 H         4.770631   4.261145   -5.269542 H        1 UNL1     0.0317
     82 H         6.68261   3.072485   -6.376396 H        1 UNL1     0.0428
     83 H         5.126644   2.596383   -7.019825 H        1 UNL1     0.0428
     84 H         6.907031   -0.041322   -4.195667 H        1 UNL1     0.0428
     85 H         7.816425   1.370013   -4.608292 H        1 UNL1     0.0428
     86 H         6.524733   1.440857   -2.474899 H        1 UNL1     0.0317
     87 H         5.028624   1.213718   -3.25747 H        1 UNL1     0.0317
     88 H         7.262685   0.885943   -7.380841 H        1 UNL1     0.0429
     89 H         6.899775   -0.602112   -6.503218 H        1 UNL1     0.0429
     90 H         4.358475   0.200882   -7.303084 H        1 UNL1     0.0308
     91 H         6.286077   1.056056   -9.541019 H        1 UNL1     0.0233
     92 H         4.517508   0.902527   -9.696227 H        1 UNL1     0.0233
     93 H         5.20867   2.133777   -8.661375 H        1 UNL1     0.0233
     94 H         4.655225   -1.468764   -9.169355 H        1 UNL1     0.0233
     95 H         6.355314   -1.584285   -8.689062 H        1 UNL1     0.0233
     96 H         5.075163   -2.044017   -7.542829 H        1 UNL1     0.0233
     97 H         4.139421   10.522426   -0.089838 H        1 UNL1     0.0280
     98 H         5.74662   11.141443   -0.356143 H        1 UNL1     0.0280
     99 H         4.563444   11.138672   -1.697716 H        1 UNL1     0.0280
     100 H         6.684951   10.72385   -3.010614 H        1 UNL1     0.2922
     101 H         4.701409   0.885264   2.433537 H        1 UNL1     0.0236
     102 H         6.014824   2.124431   2.507489 H        1 UNL1     0.0236
     103 H         6.320352   0.516747   1.926542 H        1 UNL1     0.0236
     104 H         4.332269   -0.558668   1.273163 H        1 UNL1     0.2098
     105 H         0.708662   1.282571   -0.9293 H        1 UNL1     0.0234
     106 H         1.290949   -0.404145   -1.013124 H        1 UNL1     0.0234
     107 H         0.0   -0.0   0.0 H        1 UNL1     0.0234
     108 H         1.198968   3.25983   1.752502 H        1 UNL1     0.2098
     109 H         1.078762   3.048777   -0.849275 H        1 UNL1     0.0234
     110 H         -0.178775   2.33545   -1.908788 H        1 UNL1     0.0234
     111 H         0.074583   4.045393   -1.881425 H        1 UNL1     0.0234
     112 H         -3.599058   -1.513389   1.450537 H        1 UNL1     0.0342
     113 H         -3.223369   0.114122   2.12009 H        1 UNL1     0.0342
     114 H         -4.421615   -0.068629   0.836042 H        1 UNL1     0.0342
     115 H         -2.654353   1.948755   3.312511 H        1 UNL1     0.0234
     116 H         -1.147936   1.917082   4.234731 H        1 UNL1     0.0234
     117 H         -1.623586   3.299101   3.226055 H        1 UNL1     0.0234
     118 H         0.941438   7.684136   -0.768554 H        1 UNL1     0.0309
     119 H         2.211413   7.786029   -2.027459 H        1 UNL1     0.0309
     120 H         1.453879   6.265757   -1.606656 H        1 UNL1     0.0309
     121 H         -0.300735   6.273741   2.816898 H        1 UNL1     0.0524
     122 H         -2.041625   6.059431   2.592774 H        1 UNL1     0.0524
     123 H         -1.23917   5.332108   4.007274 H        1 UNL1     0.0524
@<TRIPOS>BOND
     1     1     2    1
     2     1    42    1
     3     2     3    2
     4     3     4    1
     5     4     5    2
     6     5     7    1
     7     6    75    1
     8     6    76    1
     9     6    77    1
    10     7     9   am
    11     9    10    1
    12    10    11    2
    13    10    43    1
    14    11    14    1
    15    11    15    1
    16    12    13   ar
    17    12    27   ar
    18    12    43    1
    19    13    14    1
    20    13    30   ar
    21    14    17    2
    22    15    16    1
    23    16    17    1
    24    16    18    1
    25    16    22    1
    26    18    19    1
    27    19    20    1
    28    20    21    1
    29    21    22    1
    30    23    24    1
    31    23    88    1
    32    23    89    1
    33    24    25    1
    34    24    26    1
    35    24    90    1
    36    25    91    1
    37    25    92    1
    38    25    93    1
    39    26    94    1
    40    26    95    1
    41    26    96    1
    42    27    28   ar
    43    28    29   ar
    44    29    30   ar
    45    29    31    1
    46    30    33    1
    47    31    32    1
    48    32    33    1
    49    32    35    1
    50    34    97    1
    51    34    98    1
    52    34    99    1
    53    35    61    1
    54    36    37    1
    55    36    60    1
    56    37    38    1
    57    38    39    1
    58    39    40    1
    59    40    41    1
    60    41    42    1
    61    45   100    1
    62    47   101    1
    63    47   102    1
    64    47   103    1
    65    48   104    1
    66    49   105    1
    67    49   106    1
    68    49   107    1
    69    50   108    1
    70    51    59    1
    71    52   109    1
    72    52   110    1
    73    52   111    1
    74    53    54    1
    75    54    55    2
    76    54    56    1
    77    56   112    1
    78    56   113    1
    79    56   114    1
    80    57   115    1
    81    57   116    1
    82    57   117    1
    83    58   118    1
    84    58   119    1
    85    58   120    1
    86    59   121    1
    87    59   122    1
    88    59   123    1
    89    60    61    2
    90     1    47    1
    91     1    62    1
    92     2    63    1
    93     3    64    1
    94     4    65    1
    95     5     6    1
    96     7     8    2
    97     9    78    1
    98    15    79    1
    99    18    80    1
   100    18    81    1
   101    19    82    1
   102    19    83    1
   103    20    23    1
   104    21    84    1
   105    21    85    1
   106    22    86    1
   107    22    87    1
   108    27    45    1
   109    28    34    1
   110    32    58    1
   111    33    46    2
   112    36    51    1
   113    36    66    1
   114    37    52    1
   115    37    67    1
   116    38    53    1
   117    38    68    1
   118    42    48    1
   119    42    72    1
   120    43    44    2
   121    60    73    1
   122    61    74    1
   123    39    69    1
   124    39    57    1
   125    40    70    1
   126    40    50    1
   127    41    71    1
   128    41    49    1
