@<TRIPOS>MOLECULE
*****
 123 128 0 0 0
SMALL
GASTEIGER

@<TRIPOS>ATOM
     1 C         -1.263998   3.206722   -4.137533 C.3        1 UNL1     0.0009
     2 C         -2.381458   3.345373   -5.610318 C.2        1 UNL1     -0.0787
     3 C         -2.571959   3.360967   -7.045418 C.2        1 UNL1     -0.0649
     4 C         -4.032031   3.414748   -7.900787 C.2        1 UNL1     -0.0542
     5 C         -4.657472   3.16402   -9.146996 C.2        1 UNL1     0.0115
     6 C         -4.393753   2.816088   -10.637874 C.3        1 UNL1     -0.0348
     7 C         -6.256459   3.032532   -9.201198 C.2        1 UNL1     0.2441
     8 O         -6.984907   3.931114   -9.599242 O.2        1 UNL1     -0.2702
     9 N         -6.747105   1.729273   -9.009011 N.am        1 UNL1     -0.2772
     10 C         -6.935212   1.479733   -7.668986 C.2        1 UNL1     0.1049
     11 C         -5.865256   1.106582   -6.990624 C.2        1 UNL1     0.0801
     12 C         -7.961916   2.43629   -5.598186 C.ar        1 UNL1     0.0753
     13 C         -6.702917   2.200636   -4.95944 C.ar        1 UNL1     0.0305
     14 C         -5.656522   1.407149   -5.600133 C.2        1 UNL1     0.0924
     15 N         -4.65381   0.724465   -7.429842 N.pl3        1 UNL1     -0.3170
     16 C         -3.903004   0.255443   -6.295575 C.3        1 UNL1     0.1275
     17 N         -4.481149   1.008315   -5.122265 N.2        1 UNL1     -0.2557
     18 C         -4.273031   -1.209304   -6.082742 C.3        1 UNL1     0.0016
     19 C         -4.00526   -1.970727   -7.371199 C.3        1 UNL1     0.0026
     20 N         -2.596583   -1.830537   -7.71326 N.3        1 UNL1     -0.3018
     21 C         -2.131008   -0.451962   -7.878002 C.3        1 UNL1     0.0026
     22 C         -2.405512   0.293191   -6.570603 C.3        1 UNL1     0.0016
     23 C         -2.172836   -2.753345   -8.74743 C.3        1 UNL1     0.0012
     24 C         -3.250451   -3.821715   -8.990507 C.3        1 UNL1     -0.0339
     25 C         -2.625413   -5.177039   -9.359941 C.3        1 UNL1     -0.0615
     26 C         -4.154311   -3.935647   -7.775255 C.3        1 UNL1     -0.0615
     27 C         -8.997223   3.089621   -4.933793 C.ar        1 UNL1     0.1347
     28 C         -8.905526   3.516159   -3.620893 C.ar        1 UNL1     0.0342
     29 C         -7.640431   3.31716   -3.028357 C.ar        1 UNL1     0.1435
     30 C         -6.582409   2.696616   -3.69374 C.ar        1 UNL1     0.0774
     31 O         -7.425812   3.578616   -1.720463 O.3        1 UNL1     -0.4436
     32 C         -6.243086   2.834555   -1.391212 C.3        1 UNL1     0.3143
     33 C         -5.522803   2.632069   -2.708939 C.2        1 UNL1     0.2504
     34 C         -10.047159   3.993528   -2.767142 C.3        1 UNL1     -0.0327
     35 O         -5.414355   3.68493   -0.58914 O.2        1 UNL1     -0.4528
     36 C         -3.466964   1.374144   1.70782 C.3        1 UNL1     0.0854
     37 C         -2.50881   0.177245   1.337826 C.3        1 UNL1     0.0236
     38 C         -1.033508   0.275738   1.958734 C.3        1 UNL1     0.1131
     39 C         -0.193891   1.60452   1.780822 C.3        1 UNL1     0.0200
     40 C         -0.157048   2.390068   0.30977 C.3        1 UNL1     0.0661
     41 C         0.165625   1.671485   -1.192605 C.3        1 UNL1     0.0091
     42 C         -0.463288   2.080121   -2.866788 C.3        1 UNL1     0.0661
     43 C         -8.15935   1.882627   -6.960807 C.2        1 UNL1     0.2131
     44 O         -9.254468   1.66536   -7.446862 O.2        1 UNL1     -0.2851
     45 O         -10.174654   3.319732   -5.642413 O.3        1 UNL1     -0.5056
     46 O         -4.338214   2.475177   -2.903843 O.2        1 UNL1     -0.2836
     47 C         -0.458187   4.519794   -3.946502 C.3        1 UNL1     -0.0566
     48 O         0.87503   2.038071   -3.504168 O.3        1 UNL1     -0.3909
     49 C         0.079315   0.168887   -1.043459 C.3        1 UNL1     -0.0577
     50 O         -1.243353   3.286761   0.193124 O.3        1 UNL1     -0.3910
     51 O         -2.867786   2.456759   2.383366 O.3        1 UNL1     -0.3753
     52 C         -2.767036   -0.347928   -0.112161 C.3        1 UNL1     -0.0564
     53 O         -0.266893   -1.012778   1.892744 O.3        1 UNL1     -0.4608
     54 C         0.928799   -1.259367   2.515192 C.2        1 UNL1     0.3042
     55 O         2.047713   -1.275512   2.003713 O.2        1 UNL1     -0.2512
     56 C         0.802793   -1.472293   3.996914 C.3        1 UNL1     0.0332
     57 C         -0.410543   2.49139   3.0941 C.3        1 UNL1     -0.0567
     58 C         -6.722264   1.46034   -0.868287 C.3        1 UNL1     0.0210
     59 C         -3.742194   3.550619   2.656767 C.3        1 UNL1     0.0372
     60 C         -4.225727   1.94904   0.563734 C.2        1 UNL1     -0.0208
     61 C         -4.447134   3.219736   0.224535 C.2        1 UNL1     0.0882
     62 H         -2.143706   3.281964   -3.487023 H        1 UNL1     0.0365
     63 H         -3.336609   3.55086   -5.122537 H        1 UNL1     0.0576
     64 H         -1.746915   3.167178   -7.734516 H        1 UNL1     0.0615
     65 H         -4.768964   3.689941   -7.141391 H        1 UNL1     0.0622
     66 H         -4.218801   0.929716   2.375106 H        1 UNL1     0.0645
     67 H         -2.924346   -0.680724   1.894403 H        1 UNL1     0.0362
     68 H         -1.281314   0.228428   3.030124 H        1 UNL1     0.0741
     69 H         0.850163   1.382776   1.957428 H        1 UNL1     0.0359
     70 H         0.724256   3.041753   0.463624 H        1 UNL1     0.0600
     71 H         1.261733   1.821558   -1.24721 H        1 UNL1     0.0348
     72 H         -0.632786   2.976103   -2.252131 H        1 UNL1     0.0602
     73 H         -4.727158   1.167361   0.049154 H        1 UNL1     0.0628
     74 H         -3.93   4.074029   0.662704 H        1 UNL1     0.1022
     75 H         -3.593015   3.471541   -11.057678 H        1 UNL1     0.0279
     76 H         -4.011519   1.818645   -10.842991 H        1 UNL1     0.0279
     77 H         -5.243284   3.067   -11.289827 H        1 UNL1     0.0279
     78 H         -6.068232   1.053873   -9.354037 H        1 UNL1     0.1553
     79 H         -4.473381   0.414668   -8.367075 H        1 UNL1     0.1484
     80 H         -3.681931   -1.610088   -5.250432 H        1 UNL1     0.0317
     81 H         -5.325502   -1.309405   -5.796499 H        1 UNL1     0.0317
     82 H         -4.648598   -1.620989   -8.191999 H        1 UNL1     0.0428
     83 H         -4.277584   -3.012281   -7.197837 H        1 UNL1     0.0428
     84 H         -1.054091   -0.370939   -8.055475 H        1 UNL1     0.0428
     85 H         -2.583082   0.030025   -8.75586 H        1 UNL1     0.0428
     86 H         -1.934834   1.252627   -6.679838 H        1 UNL1     0.0317
     87 H         -1.846178   -0.1719   -5.74967 H        1 UNL1     0.0317
     88 H         -2.029439   -2.184169   -9.675207 H        1 UNL1     0.0429
     89 H         -1.207583   -3.213632   -8.500049 H        1 UNL1     0.0429
     90 H         -3.896761   -3.498831   -9.815275 H        1 UNL1     0.0308
     91 H         -1.813979   -5.05668   -10.083951 H        1 UNL1     0.0233
     92 H         -2.240263   -5.680239   -8.469965 H        1 UNL1     0.0233
     93 H         -3.353012   -5.863997   -9.808854 H        1 UNL1     0.0233
     94 H         -4.652333   -4.911201   -7.765081 H        1 UNL1     0.0233
     95 H         -3.562178   -3.849867   -6.859841 H        1 UNL1     0.0233
     96 H         -4.921282   -3.156083   -7.773892 H        1 UNL1     0.0233
     97 H         -10.320058   5.020913   -2.989037 H        1 UNL1     0.0280
     98 H         -10.957461   3.400213   -2.923935 H        1 UNL1     0.0280
     99 H         -9.763048   3.933413   -1.703769 H        1 UNL1     0.0280
     100 H         -10.623254   2.540403   -5.919948 H        1 UNL1     0.2922
     101 H         -0.873368   5.088227   -3.114537 H        1 UNL1     0.0236
     102 H         -0.389176   5.116461   -4.855463 H        1 UNL1     0.0236
     103 H         0.58827   4.325238   -3.65794 H        1 UNL1     0.0236
     104 H         1.531228   2.302473   -2.830027 H        1 UNL1     0.2098
     105 H         -0.788151   -0.280651   -1.520145 H        1 UNL1     0.0234
     106 H         0.985061   -0.369214   -1.322739 H        1 UNL1     0.0234
     107 H         0.0   -0.0   0.0 H        1 UNL1     0.0234
     108 H         -0.878415   4.191637   0.235421 H        1 UNL1     0.2098
     109 H         -1.845269   -0.696175   -0.598763 H        1 UNL1     0.0234
     110 H         -3.524977   -1.137488   -0.155337 H        1 UNL1     0.0234
     111 H         -3.167006   0.440911   -0.763086 H        1 UNL1     0.0234
     112 H         1.791463   -1.642504   4.433841 H        1 UNL1     0.0342
     113 H         0.296023   -0.643033   4.488194 H        1 UNL1     0.0342
     114 H         0.200753   -2.376119   4.163682 H        1 UNL1     0.0342
     115 H         0.154126   3.432821   3.048885 H        1 UNL1     0.0234
     116 H         -1.454167   2.743652   3.29225 H        1 UNL1     0.0234
     117 H         0.008806   2.035024   4.007236 H        1 UNL1     0.0234
     118 H         -6.819869   1.446266   0.231387 H        1 UNL1     0.0309
     119 H         -7.667069   1.135988   -1.315882 H        1 UNL1     0.0309
     120 H         -6.001493   0.659928   -1.06813 H        1 UNL1     0.0309
     121 H         -3.131299   4.449572   2.734523 H        1 UNL1     0.0524
     122 H         -4.47274   3.714704   1.847189 H        1 UNL1     0.0524
     123 H         -4.27819   3.380125   3.586139 H        1 UNL1     0.0524
@<TRIPOS>BOND
     1     1     2    1
     2     1    42    1
     3     2     3    2
     4     3     4    1
     5     4     5    2
     6     5     7    1
     7     6    75    1
     8     6    76    1
     9     6    77    1
    10     7     9   am
    11     9    10    1
    12    10    11    2
    13    10    43    1
    14    11    14    1
    15    11    15    1
    16    12    13   ar
    17    12    27   ar
    18    12    43    1
    19    13    14    1
    20    13    30   ar
    21    14    17    2
    22    15    16    1
    23    16    17    1
    24    16    18    1
    25    16    22    1
    26    18    19    1
    27    19    20    1
    28    20    21    1
    29    21    22    1
    30    23    24    1
    31    23    88    1
    32    23    89    1
    33    24    25    1
    34    24    26    1
    35    24    90    1
    36    25    91    1
    37    25    92    1
    38    25    93    1
    39    26    94    1
    40    26    95    1
    41    26    96    1
    42    27    28   ar
    43    28    29   ar
    44    29    30   ar
    45    29    31    1
    46    30    33    1
    47    31    32    1
    48    32    33    1
    49    32    35    1
    50    34    97    1
    51    34    98    1
    52    34    99    1
    53    35    61    1
    54    36    37    1
    55    36    60    1
    56    37    38    1
    57    38    39    1
    58    39    40    1
    59    40    41    1
    60    41    42    1
    61    45   100    1
    62    47   101    1
    63    47   102    1
    64    47   103    1
    65    48   104    1
    66    49   105    1
    67    49   106    1
    68    49   107    1
    69    50   108    1
    70    51    59    1
    71    52   109    1
    72    52   110    1
    73    52   111    1
    74    53    54    1
    75    54    55    2
    76    54    56    1
    77    56   112    1
    78    56   113    1
    79    56   114    1
    80    57   115    1
    81    57   116    1
    82    57   117    1
    83    58   118    1
    84    58   119    1
    85    58   120    1
    86    59   121    1
    87    59   122    1
    88    59   123    1
    89    60    61    2
    90     1    47    1
    91     1    62    1
    92     2    63    1
    93     3    64    1
    94     4    65    1
    95     5     6    1
    96     7     8    2
    97     9    78    1
    98    15    79    1
    99    18    80    1
   100    18    81    1
   101    19    82    1
   102    19    83    1
   103    20    23    1
   104    21    84    1
   105    21    85    1
   106    22    86    1
   107    22    87    1
   108    27    45    1
   109    28    34    1
   110    32    58    1
   111    33    46    2
   112    36    51    1
   113    36    66    1
   114    37    52    1
   115    37    67    1
   116    38    53    1
   117    38    68    1
   118    42    48    1
   119    42    72    1
   120    43    44    2
   121    60    73    1
   122    61    74    1
   123    39    69    1
   124    39    57    1
   125    40    70    1
   126    40    50    1
   127    41    71    1
   128    41    49    1
