@<TRIPOS>MOLECULE
*****
 123 128 0 0 0
SMALL
GASTEIGER

@<TRIPOS>ATOM
     1 C         5.163484   1.767414   0.462891 C.3        1 UNL1     0.0009
     2 C         6.592372   2.579107   -0.395287 C.2        1 UNL1     -0.0787
     3 C         7.870888   2.485889   -1.068157 C.2        1 UNL1     -0.0649
     4 C         8.739461   3.724467   -1.82833 C.2        1 UNL1     -0.0542
     5 C         9.75314   4.021149   -2.772529 C.2        1 UNL1     0.0115
     6 C         10.878853   3.40014   -3.644562 C.3        1 UNL1     -0.0348
     7 C         9.839517   5.50488   -3.379216 C.2        1 UNL1     0.2441
     8 O         10.662388   6.329547   -3.005943 O.2        1 UNL1     -0.2702
     9 N         9.08202   5.709263   -4.545654 N.am        1 UNL1     -0.2772
     10 C         7.799623   6.091043   -4.22468 C.2        1 UNL1     0.1049
     11 C         6.959139   5.11639   -3.928269 C.2        1 UNL1     0.0801
     12 C         6.503058   7.692499   -2.806374 C.ar        1 UNL1     0.0753
     13 C         5.750754   6.561639   -2.354927 C.ar        1 UNL1     0.0305
     14 C         5.86901   5.256522   -3.001253 C.2        1 UNL1     0.0924
     15 N         7.085876   3.787917   -4.088341 N.pl3        1 UNL1     -0.3170
     16 C         5.820049   3.183902   -3.767243 C.3        1 UNL1     0.1275
     17 N         5.185518   4.136529   -2.783579 N.2        1 UNL1     -0.2557
     18 C         4.959968   3.240021   -5.026136 C.3        1 UNL1     0.0016
     19 C         5.711129   2.559012   -6.159085 C.3        1 UNL1     0.0026
     20 N         5.988601   1.181858   -5.775049 N.3        1 UNL1     -0.3018
     21 C         6.75944   1.024083   -4.540025 C.3        1 UNL1     0.0026
     22 C         5.984348   1.711433   -3.414557 C.3        1 UNL1     0.0016
     23 C         6.43001   0.36423   -6.887383 C.3        1 UNL1     0.0012
     24 C         5.270067   0.110607   -7.863069 C.3        1 UNL1     -0.0339
     25 C         5.354893   1.033813   -9.089671 C.3        1 UNL1     -0.0615
     26 C         5.239405   -1.353363   -8.266345 C.3        1 UNL1     -0.0615
     27 C         6.29663   8.959301   -2.26534 C.ar        1 UNL1     0.1347
     28 C         5.34192   9.225037   -1.299957 C.ar        1 UNL1     0.0342
     29 C         4.647209   8.087857   -0.835886 C.ar        1 UNL1     0.1435
     30 C         4.868662   6.80677   -1.342831 C.ar        1 UNL1     0.0774
     31 O         3.610563   8.197326   0.02341 O.3        1 UNL1     -0.4436
     32 C         2.892753   6.961826   -0.11501 C.3        1 UNL1     0.3143
     33 C         3.906805   5.972653   -0.653015 C.2        1 UNL1     0.2504
     34 C         4.8924   10.589358   -0.856494 C.3        1 UNL1     -0.0327
     35 O         2.541098   6.523503   1.203119 O.2        1 UNL1     -0.4528
     36 C         -0.696808   4.579195   0.824018 C.3        1 UNL1     0.0854
     37 C         -1.002358   3.31765   -0.071899 C.3        1 UNL1     0.0236
     38 C         -1.593763   2.054195   0.719091 C.3        1 UNL1     0.1131
     39 C         -0.858772   1.525738   2.016315 C.3        1 UNL1     0.0200
     40 C         0.80316   1.386443   2.048198 C.3        1 UNL1     0.0661
     41 C         1.758891   0.621465   0.87389 C.3        1 UNL1     0.0091
     42 C         3.461932   0.990563   0.300462 C.3        1 UNL1     0.0661
     43 C         7.447615   7.488599   -3.932649 C.2        1 UNL1     0.2131
     44 O         7.840104   8.388319   -4.6532 O.2        1 UNL1     -0.2851
     45 O         7.102427   9.997551   -2.728122 O.3        1 UNL1     -0.5056
     46 O         3.928054   4.769162   -0.52259 O.2        1 UNL1     -0.2836
     47 C         5.569469   1.339151   1.898769 C.3        1 UNL1     -0.0566
     48 O         3.916254   -0.418859   0.379441 O.3        1 UNL1     -0.3909
     49 C         0.918687   0.385977   -0.361463 C.3        1 UNL1     -0.0577
     50 O         1.400949   2.60648   2.437915 O.3        1 UNL1     -0.3910
     51 O         -0.812425   4.388784   2.21607 O.3        1 UNL1     -0.3753
     52 C         0.036253   3.161337   -1.230261 C.3        1 UNL1     -0.0564
     53 O         -2.197457   1.013124   -0.177598 O.3        1 UNL1     -0.4608
     54 C         -2.393878   -0.302586   0.151426 C.2        1 UNL1     0.3042
     55 O         -1.746728   -1.274244   -0.237053 O.2        1 UNL1     -0.2512
     56 C         -3.50168   -0.5155   1.143473 C.3        1 UNL1     0.0332
     57 C         -1.57527   2.191769   3.281704 C.3        1 UNL1     -0.0567
     58 C         1.810615   7.203075   -1.193113 C.3        1 UNL1     0.0210
     59 C         -1.125925   5.56646   2.958136 C.3        1 UNL1     0.0372
     60 C         0.628504   5.213321   0.58613 C.2        1 UNL1     -0.0208
     61 C         1.544629   5.651822   1.450524 C.2        1 UNL1     0.0882
     62 H         4.684358   2.749772   0.553019 H        1 UNL1     0.0365
     63 H         6.322753   3.631877   -0.288278 H        1 UNL1     0.0576
     64 H         8.330937   1.520811   -1.291957 H        1 UNL1     0.0615
     65 H         8.25088   4.637958   -1.478608 H        1 UNL1     0.0622
     66 H         -1.445981   5.322974   0.51811 H        1 UNL1     0.0645
     67 H         -1.872461   3.623871   -0.67829 H        1 UNL1     0.0362
     68 H         -2.540493   2.487438   1.076197 H        1 UNL1     0.0741
     69 H         -1.185393   0.513363   2.213352 H        1 UNL1     0.0359
     70 H         0.922334   0.726372   2.928632 H        1 UNL1     0.0600
     71 H         1.808696   -0.39961   1.30037 H        1 UNL1     0.0348
     72 H         3.359682   1.478183   1.280813 H        1 UNL1     0.0602
     73 H         0.739871   5.411206   -0.451024 H        1 UNL1     0.0628
     74 H         1.533846   5.440894   2.520398 H        1 UNL1     0.1022
     75 H         10.87683   2.287198   -3.552963 H        1 UNL1     0.0279
     76 H         10.796844   3.546894   -4.719182 H        1 UNL1     0.0279
     77 H         11.885962   3.646074   -3.27721 H        1 UNL1     0.0279
     78 H         9.020363   4.839184   -5.070286 H        1 UNL1     0.1553
     79 H         7.749295   3.362546   -4.709524 H        1 UNL1     0.1484
     80 H         4.001638   2.745439   -4.82674 H        1 UNL1     0.0317
     81 H         4.727952   4.275965   -5.295657 H        1 UNL1     0.0317
     82 H         6.638388   3.093857   -6.412152 H        1 UNL1     0.0428
     83 H         5.080806   2.611967   -7.047307 H        1 UNL1     0.0428
     84 H         6.885406   -0.018465   -4.231746 H        1 UNL1     0.0428
     85 H         7.787546   1.396008   -4.649516 H        1 UNL1     0.0428
     86 H         6.506771   1.462847   -2.509422 H        1 UNL1     0.0317
     87 H         5.007421   1.230092   -3.2841 H        1 UNL1     0.0317
     88 H         7.221074   0.909114   -7.418997 H        1 UNL1     0.0429
     89 H         6.868112   -0.579972   -6.539069 H        1 UNL1     0.0429
     90 H         4.320304   0.29958   -7.348818 H        1 UNL1     0.0308
     91 H         6.307779   0.912639   -9.613529 H        1 UNL1     0.0233
     92 H         4.535812   0.830568   -9.783506 H        1 UNL1     0.0233
     93 H         5.272129   2.093908   -8.821003 H        1 UNL1     0.0233
     94 H         4.580186   -1.493541   -9.129836 H        1 UNL1     0.0233
     95 H         6.242383   -1.683645   -8.550794 H        1 UNL1     0.0233
     96 H         4.878203   -1.984742   -7.449728 H        1 UNL1     0.0233
     97 H         4.048512   10.538754   -0.174936 H        1 UNL1     0.0280
     98 H         5.681514   11.13036   -0.318096 H        1 UNL1     0.0280
     99 H         4.591575   11.182611   -1.7355 H        1 UNL1     0.0280
     100 H         6.634356   10.774543   -2.978754 H        1 UNL1     0.2922
     101 H         4.687899   1.006419   2.446291 H        1 UNL1     0.0236
     102 H         6.118171   2.111093   2.437301 H        1 UNL1     0.0236
     103 H         6.243047   0.465952   1.895623 H        1 UNL1     0.0236
     104 H         4.253306   -0.569852   1.284189 H        1 UNL1     0.2098
     105 H         0.700092   1.283996   -0.933816 H        1 UNL1     0.0234
     106 H         1.286955   -0.401044   -1.019418 H        1 UNL1     0.0234
     107 H         0.0   -0.0   0.0 H        1 UNL1     0.0234
     108 H         1.249945   3.247036   1.716351 H        1 UNL1     0.2098
     109 H         1.065015   3.06405   -0.856234 H        1 UNL1     0.0234
     110 H         -0.190132   2.325899   -1.901481 H        1 UNL1     0.0234
     111 H         0.041668   4.039079   -1.890175 H        1 UNL1     0.0234
     112 H         -3.591683   -1.580521   1.377941 H        1 UNL1     0.0342
     113 H         -3.359686   0.073177   2.048536 H        1 UNL1     0.0342
     114 H         -4.443939   -0.191833   0.680277 H        1 UNL1     0.0342
     115 H         -2.662349   2.033027   3.265936 H        1 UNL1     0.0234
     116 H         -1.204565   1.830371   4.242962 H        1 UNL1     0.0234
     117 H         -1.520947   3.294015   3.288344 H        1 UNL1     0.0234
     118 H         0.908187   7.682274   -0.774785 H        1 UNL1     0.0309
     119 H         2.171747   7.796482   -2.039077 H        1 UNL1     0.0309
     120 H         1.426488   6.269863   -1.619338 H        1 UNL1     0.0309
     121 H         -0.792307   5.408686   3.983398 H        1 UNL1     0.0524
     122 H         -0.601755   6.456375   2.571699 H        1 UNL1     0.0524
     123 H         -2.196308   5.750586   2.936396 H        1 UNL1     0.0524
@<TRIPOS>BOND
     1     1     2    1
     2     1    42    1
     3     2     3    2
     4     3     4    1
     5     4     5    2
     6     5     7    1
     7     6    75    1
     8     6    76    1
     9     6    77    1
    10     7     9   am
    11     9    10    1
    12    10    11    2
    13    10    43    1
    14    11    14    1
    15    11    15    1
    16    12    13   ar
    17    12    27   ar
    18    12    43    1
    19    13    14    1
    20    13    30   ar
    21    14    17    2
    22    15    16    1
    23    16    17    1
    24    16    18    1
    25    16    22    1
    26    18    19    1
    27    19    20    1
    28    20    21    1
    29    21    22    1
    30    23    24    1
    31    23    88    1
    32    23    89    1
    33    24    25    1
    34    24    26    1
    35    24    90    1
    36    25    91    1
    37    25    92    1
    38    25    93    1
    39    26    94    1
    40    26    95    1
    41    26    96    1
    42    27    28   ar
    43    28    29   ar
    44    29    30   ar
    45    29    31    1
    46    30    33    1
    47    31    32    1
    48    32    33    1
    49    32    35    1
    50    34    97    1
    51    34    98    1
    52    34    99    1
    53    35    61    1
    54    36    37    1
    55    36    60    1
    56    37    38    1
    57    38    39    1
    58    39    40    1
    59    40    41    1
    60    41    42    1
    61    45   100    1
    62    47   101    1
    63    47   102    1
    64    47   103    1
    65    48   104    1
    66    49   105    1
    67    49   106    1
    68    49   107    1
    69    50   108    1
    70    51    59    1
    71    52   109    1
    72    52   110    1
    73    52   111    1
    74    53    54    1
    75    54    55    2
    76    54    56    1
    77    56   112    1
    78    56   113    1
    79    56   114    1
    80    57   115    1
    81    57   116    1
    82    57   117    1
    83    58   118    1
    84    58   119    1
    85    58   120    1
    86    59   121    1
    87    59   122    1
    88    59   123    1
    89    60    61    2
    90     1    47    1
    91     1    62    1
    92     2    63    1
    93     3    64    1
    94     4    65    1
    95     5     6    1
    96     7     8    2
    97     9    78    1
    98    15    79    1
    99    18    80    1
   100    18    81    1
   101    19    82    1
   102    19    83    1
   103    20    23    1
   104    21    84    1
   105    21    85    1
   106    22    86    1
   107    22    87    1
   108    27    45    1
   109    28    34    1
   110    32    58    1
   111    33    46    2
   112    36    51    1
   113    36    66    1
   114    37    52    1
   115    37    67    1
   116    38    53    1
   117    38    68    1
   118    42    48    1
   119    42    72    1
   120    43    44    2
   121    60    73    1
   122    61    74    1
   123    39    69    1
   124    39    57    1
   125    40    70    1
   126    40    50    1
   127    41    71    1
   128    41    49    1
