@<TRIPOS>MOLECULE
*****
 123 128 0 0 0
SMALL
GASTEIGER

@<TRIPOS>ATOM
     1 C         5.167789   1.744743   0.49942 C.3        1 UNL1     0.0009
     2 C         6.606179   2.550359   -0.34855 C.2        1 UNL1     -0.0787
     3 C         7.888953   2.451692   -1.012479 C.2        1 UNL1     -0.0649
     4 C         8.768225   3.686618   -1.766267 C.2        1 UNL1     -0.0542
     5 C         9.789773   3.979059   -2.703281 C.2        1 UNL1     0.0115
     6 C         10.918837   3.353314   -3.567561 C.3        1 UNL1     -0.0348
     7 C         9.886872   5.462522   -3.309003 C.2        1 UNL1     0.2441
     8 O         10.710706   6.28351   -2.929789 O.2        1 UNL1     -0.2702
     9 N         9.138456   5.670449   -4.480665 N.am        1 UNL1     -0.2772
     10 C         7.855525   6.057764   -4.168583 C.2        1 UNL1     0.1049
     11 C         7.008738   5.086732   -3.878286 C.2        1 UNL1     0.0801
     12 C         6.556073   7.664581   -2.759009 C.ar        1 UNL1     0.0753
     13 C         5.795697   6.536928   -2.313101 C.ar        1 UNL1     0.0305
     14 C         5.912771   5.231437   -2.958888 C.2        1 UNL1     0.0924
     15 N         7.130789   3.75775   -4.037778 N.pl3        1 UNL1     -0.3170
     16 C         5.86012   3.159207   -3.725685 C.3        1 UNL1     0.1275
     17 N         5.222888   4.114397   -2.746263 N.2        1 UNL1     -0.2557
     18 C         5.009122   3.219339   -4.990552 C.3        1 UNL1     0.0016
     19 C         5.765212   2.535283   -6.118376 C.3        1 UNL1     0.0026
     20 N         6.033972   1.156852   -5.73273 N.3        1 UNL1     -0.3018
     21 C         6.795453   0.995461   -4.49238 C.3        1 UNL1     0.0026
     22 C         6.015514   1.685962   -3.372202 C.3        1 UNL1     0.0016
     23 C         6.479579   0.337529   -6.842139 C.3        1 UNL1     0.0012
     24 C         5.324001   0.084626   -7.823177 C.3        1 UNL1     -0.0339
     25 C         5.34636   1.086995   -8.988859 C.3        1 UNL1     -0.0615
     26 C         5.366382   -1.350354   -8.318976 C.3        1 UNL1     -0.0615
     27 C         6.3514   8.932164   -2.219137 C.ar        1 UNL1     0.1347
     28 C         5.391127   9.201872   -1.260396 C.ar        1 UNL1     0.0342
     29 C         4.688225   8.067645   -0.801462 C.ar        1 UNL1     0.1435
     30 C         4.907623   6.785705   -1.307144 C.ar        1 UNL1     0.0774
     31 O         3.64608   8.181468   0.050585 O.3        1 UNL1     -0.4436
     32 C         2.923866   6.949144   -0.093142 C.3        1 UNL1     0.3143
     33 C         3.937328   5.955659   -0.624269 C.2        1 UNL1     0.2504
     34 C         4.944478   10.568055   -0.819771 C.3        1 UNL1     -0.0327
     35 O         2.561084   6.512094   1.222392 O.2        1 UNL1     -0.4528
     36 C         -0.682551   4.582029   0.820191 C.3        1 UNL1     0.0854
     37 C         -0.987331   3.322013   -0.078137 C.3        1 UNL1     0.0236
     38 C         -1.589769   2.060993   0.708401 C.3        1 UNL1     0.1131
     39 C         -0.866189   1.529066   2.010613 C.3        1 UNL1     0.0200
     40 C         0.794855   1.382505   2.054091 C.3        1 UNL1     0.0661
     41 C         1.75543   0.613596   0.886321 C.3        1 UNL1     0.0091
     42 C         3.464038   0.975367   0.324909 C.3        1 UNL1     0.0661
     43 C         7.507589   7.456785   -3.878695 C.2        1 UNL1     0.2131
     44 O         7.909037   8.354928   -4.596273 O.2        1 UNL1     -0.2851
     45 O         7.164942   9.966977   -2.676027 O.3        1 UNL1     -0.5056
     46 O         3.952407   4.75206   -0.493981 O.2        1 UNL1     -0.2836
     47 C         5.561841   1.314419   1.938004 C.3        1 UNL1     -0.0566
     48 O         3.911636   -0.436043   0.406736 O.3        1 UNL1     -0.3909
     49 C         0.922871   0.382032   -0.354936 C.3        1 UNL1     -0.0577
     50 O         1.395226   2.59984   2.448266 O.3        1 UNL1     -0.3910
     51 O         -0.808736   4.391842   2.211355 O.3        1 UNL1     -0.3753
     52 C         0.058669   3.161398   -1.229239 C.3        1 UNL1     -0.0564
     53 O         -2.191714   1.022751   -0.192732 O.3        1 UNL1     -0.4608
     54 C         -2.415287   -0.287246   0.141712 C.2        1 UNL1     0.3042
     55 O         -1.843143   -1.280397   -0.30566 O.2        1 UNL1     -0.2512
     56 C         -3.446213   -0.46518   1.219787 C.3        1 UNL1     0.0332
     57 C         -1.588609   2.197966   3.271113 C.3        1 UNL1     -0.0567
     58 C         1.850363   7.195337   -1.178734 C.3        1 UNL1     0.0210
     59 C         -1.153196   5.56438   2.947812 C.3        1 UNL1     0.0372
     60 C         0.647151   5.210407   0.591729 C.2        1 UNL1     -0.0208
     61 C         1.559111   5.644725   1.462615 C.2        1 UNL1     0.0882
     62 H         4.692339   2.729166   0.586423 H        1 UNL1     0.0365
     63 H         6.340418   3.604275   -0.243183 H        1 UNL1     0.0576
     64 H         8.346337   1.484659   -1.23328 H        1 UNL1     0.0615
     65 H         8.281203   4.602164   -1.419759 H        1 UNL1     0.0622
     66 H         -1.426309   5.329135   0.509222 H        1 UNL1     0.0645
     67 H         -1.851823   3.632155   -0.690529 H        1 UNL1     0.0362
     68 H         -2.537073   2.498295   1.058975 H        1 UNL1     0.0741
     69 H         -1.1986   0.518088   2.205124 H        1 UNL1     0.0359
     70 H         0.904981   0.721741   2.935183 H        1 UNL1     0.0600
     71 H         1.797789   -0.407772   1.3129 H        1 UNL1     0.0348
     72 H         3.357061   1.46323   1.304634 H        1 UNL1     0.0602
     73 H         0.766636   5.408013   -0.444573 H        1 UNL1     0.0628
     74 H         1.539921   5.433629   2.532338 H        1 UNL1     0.1022
     75 H         10.962433   2.247946   -3.414939 H        1 UNL1     0.0279
     76 H         10.806784   3.436618   -4.646252 H        1 UNL1     0.0279
     77 H         11.923632   3.657275   -3.239391 H        1 UNL1     0.0279
     78 H         9.076674   4.800754   -5.005918 H        1 UNL1     0.1553
     79 H         7.796674   3.329611   -4.654402 H        1 UNL1     0.1484
     80 H         4.04727   2.728907   -4.797982 H        1 UNL1     0.0317
     81 H         4.783526   4.25634   -5.261449 H        1 UNL1     0.0317
     82 H         6.696546   3.066123   -6.364825 H        1 UNL1     0.0428
     83 H         5.141357   2.591172   -7.010975 H        1 UNL1     0.0428
     84 H         6.914704   -0.047691   -4.18347 H        1 UNL1     0.0428
     85 H         7.825914   1.362912   -4.594587 H        1 UNL1     0.0428
     86 H         6.530499   1.434913   -2.463492 H        1 UNL1     0.0317
     87 H         5.035604   1.208867   -3.248696 H        1 UNL1     0.0317
     88 H         7.273982   0.880774   -7.370443 H        1 UNL1     0.0429
     89 H         6.914641   -0.606963   -6.490813 H        1 UNL1     0.0429
     90 H         4.371293   0.189523   -7.290676 H        1 UNL1     0.0308
     91 H         6.294973   1.043882   -9.532345 H        1 UNL1     0.0233
     92 H         4.526014   0.890449   -9.683129 H        1 UNL1     0.0233
     93 H         5.219847   2.122835   -8.65142 H        1 UNL1     0.0233
     94 H         4.669779   -1.482197   -9.153959 H        1 UNL1     0.0233
     95 H         6.371052   -1.592562   -8.676656 H        1 UNL1     0.0233
     96 H         5.094247   -2.05422   -7.527469 H        1 UNL1     0.0233
     97 H         4.150062   10.518454   -0.081073 H        1 UNL1     0.0280
     98 H         5.756909   11.137415   -0.349621 H        1 UNL1     0.0280
     99 H         4.572373   11.133168   -1.689989 H        1 UNL1     0.0280
     100 H         6.698818   10.717739   -2.999611 H        1 UNL1     0.2922
     101 H         4.698052   0.881096   2.441746 H        1 UNL1     0.0236
     102 H         6.012288   2.119256   2.517934 H        1 UNL1     0.0236
     103 H         6.317607   0.511293   1.937648 H        1 UNL1     0.0236
     104 H         4.329857   -0.562639   1.280827 H        1 UNL1     0.2098
     105 H         0.712211   1.281115   -0.928595 H        1 UNL1     0.0234
     106 H         1.292293   -0.406456   -1.010482 H        1 UNL1     0.0234
     107 H         0.0   -0.0   0.0 H        1 UNL1     0.0234
     108 H         1.19566   3.259225   1.756057 H        1 UNL1     0.2098
     109 H         1.082896   3.047151   -0.847641 H        1 UNL1     0.0234
     110 H         -0.17331   2.334712   -1.909328 H        1 UNL1     0.0234
     111 H         0.081316   4.044462   -1.881644 H        1 UNL1     0.0234
     112 H         -3.572524   -1.529146   1.441974 H        1 UNL1     0.0342
     113 H         -3.198328   0.095202   2.119992 H        1 UNL1     0.0342
     114 H         -4.405382   -0.083503   0.843648 H        1 UNL1     0.0342
     115 H         -2.653004   1.930159   3.321415 H        1 UNL1     0.0234
     116 H         -1.138581   1.936763   4.230955 H        1 UNL1     0.0234
     117 H         -1.64833   3.298321   3.211169 H        1 UNL1     0.0234
     118 H         0.949   7.682619   -0.767508 H        1 UNL1     0.0309
     119 H         2.221282   7.783439   -2.024168 H        1 UNL1     0.0309
     120 H         1.461833   6.263783   -1.604595 H        1 UNL1     0.0309
     121 H         -0.349825   6.28768   2.810735 H        1 UNL1     0.0524
     122 H         -2.084218   6.029192   2.582866 H        1 UNL1     0.0524
     123 H         -1.26748   5.326328   4.00155 H        1 UNL1     0.0524
@<TRIPOS>BOND
     1     1     2    1
     2     1    42    1
     3     2     3    2
     4     3     4    1
     5     4     5    2
     6     5     7    1
     7     6    75    1
     8     6    76    1
     9     6    77    1
    10     7     9   am
    11     9    10    1
    12    10    11    2
    13    10    43    1
    14    11    14    1
    15    11    15    1
    16    12    13   ar
    17    12    27   ar
    18    12    43    1
    19    13    14    1
    20    13    30   ar
    21    14    17    2
    22    15    16    1
    23    16    17    1
    24    16    18    1
    25    16    22    1
    26    18    19    1
    27    19    20    1
    28    20    21    1
    29    21    22    1
    30    23    24    1
    31    23    88    1
    32    23    89    1
    33    24    25    1
    34    24    26    1
    35    24    90    1
    36    25    91    1
    37    25    92    1
    38    25    93    1
    39    26    94    1
    40    26    95    1
    41    26    96    1
    42    27    28   ar
    43    28    29   ar
    44    29    30   ar
    45    29    31    1
    46    30    33    1
    47    31    32    1
    48    32    33    1
    49    32    35    1
    50    34    97    1
    51    34    98    1
    52    34    99    1
    53    35    61    1
    54    36    37    1
    55    36    60    1
    56    37    38    1
    57    38    39    1
    58    39    40    1
    59    40    41    1
    60    41    42    1
    61    45   100    1
    62    47   101    1
    63    47   102    1
    64    47   103    1
    65    48   104    1
    66    49   105    1
    67    49   106    1
    68    49   107    1
    69    50   108    1
    70    51    59    1
    71    52   109    1
    72    52   110    1
    73    52   111    1
    74    53    54    1
    75    54    55    2
    76    54    56    1
    77    56   112    1
    78    56   113    1
    79    56   114    1
    80    57   115    1
    81    57   116    1
    82    57   117    1
    83    58   118    1
    84    58   119    1
    85    58   120    1
    86    59   121    1
    87    59   122    1
    88    59   123    1
    89    60    61    2
    90     1    47    1
    91     1    62    1
    92     2    63    1
    93     3    64    1
    94     4    65    1
    95     5     6    1
    96     7     8    2
    97     9    78    1
    98    15    79    1
    99    18    80    1
   100    18    81    1
   101    19    82    1
   102    19    83    1
   103    20    23    1
   104    21    84    1
   105    21    85    1
   106    22    86    1
   107    22    87    1
   108    27    45    1
   109    28    34    1
   110    32    58    1
   111    33    46    2
   112    36    51    1
   113    36    66    1
   114    37    52    1
   115    37    67    1
   116    38    53    1
   117    38    68    1
   118    42    48    1
   119    42    72    1
   120    43    44    2
   121    60    73    1
   122    61    74    1
   123    39    69    1
   124    39    57    1
   125    40    70    1
   126    40    50    1
   127    41    71    1
   128    41    49    1
