@<TRIPOS>MOLECULE
*****
 123 128 0 0 0
SMALL
GASTEIGER

@<TRIPOS>ATOM
     1 C         -0.093003   4.02946   -1.345539 C.3        1 UNL1     0.0009
     2 C         -1.479079   4.902154   -2.214006 C.2        1 UNL1     -0.0787
     3 C         -2.053461   5.456013   -3.42205 C.2        1 UNL1     -0.0649
     4 C         -3.601638   6.107506   -3.634329 C.2        1 UNL1     -0.0542
     5 C         -4.600306   6.442852   -4.58158 C.2        1 UNL1     0.0115
     6 C         -4.893409   6.589221   -6.100128 C.3        1 UNL1     -0.0348
     7 C         -6.105573   6.674916   -4.074325 C.2        1 UNL1     0.2441
     8 O         -6.595524   7.786641   -3.931001 O.2        1 UNL1     -0.2702
     9 N         -6.905685   5.519219   -4.055998 N.am        1 UNL1     -0.2772
     10 C         -6.774847   4.863607   -2.853344 C.2        1 UNL1     0.1049
     11 C         -5.73074   4.063231   -2.737329 C.2        1 UNL1     0.0801
     12 C         -6.817065   5.230515   -0.379293 C.ar        1 UNL1     0.0753
     13 C         -5.569663   4.530185   -0.333094 C.ar        1 UNL1     0.0305
     14 C         -5.052995   3.810048   -1.494777 C.2        1 UNL1     0.0924
     15 N         -4.878004   3.614453   -3.674329 N.pl3        1 UNL1     -0.3170
     16 C         -4.023978   2.63419   -3.057906 C.3        1 UNL1     0.1275
     17 N         -3.978292   3.034062   -1.603349 N.2        1 UNL1     -0.2557
     18 C         -4.759787   1.298571   -3.107011 C.3        1 UNL1     0.0016
     19 C         -5.121966   0.995699   -4.552239 C.3        1 UNL1     0.0026
     20 N         -3.898667   0.949294   -5.341172 N.3        1 UNL1     -0.3018
     21 C         -3.089788   2.169489   -5.306418 C.3        1 UNL1     0.0026
     22 C         -2.73346   2.452297   -3.845958 C.3        1 UNL1     0.0016
     23 C         -4.098265   0.377839   -6.658079 C.3        1 UNL1     0.0012
     24 C         -4.372674   -1.130723   -6.554656 C.3        1 UNL1     -0.0339
     25 C         -3.785283   -1.892683   -7.754009 C.3        1 UNL1     -0.0615
     26 C         -3.841551   -1.667519   -5.236878 C.3        1 UNL1     -0.0615
     27 C         -7.361076   5.811997   0.763533 C.ar        1 UNL1     0.1347
     28 C         -6.771705   5.725364   2.012207 C.ar        1 UNL1     0.0342
     29 C         -5.520343   5.073359   2.024271 C.ar        1 UNL1     0.1435
     30 C         -4.945718   4.51745   0.880597 C.ar        1 UNL1     0.0774
     31 O         -4.872983   4.811977   3.180822 O.3        1 UNL1     -0.4436
     32 C         -3.942371   3.770725   2.84821 C.3        1 UNL1     0.3143
     33 C         -3.72703   3.89452   1.35338 C.2        1 UNL1     0.2504
     34 C         -7.413744   6.102244   3.318288 C.3        1 UNL1     -0.0327
     35 O         -2.696719   4.095719   3.47748 O.2        1 UNL1     -0.4528
     36 C         -1.008744   0.777815   4.219332 C.3        1 UNL1     0.0854
     37 C         -0.622239   -0.386895   3.228581 C.3        1 UNL1     0.0236
     38 C         0.921205   -0.82073   3.26481 C.3        1 UNL1     0.1131
     39 C         2.049529   0.280569   3.137148 C.3        1 UNL1     0.0200
     40 C         1.913193   1.503211   2.010651 C.3        1 UNL1     0.0661
     41 C         1.553605   1.302558   0.365037 C.3        1 UNL1     0.0091
     42 C         0.637987   2.390295   -0.79422 C.3        1 UNL1     0.0661
     43 C         -7.556318   5.240332   -1.666021 C.2        1 UNL1     0.2131
     44 O         -8.754508   5.439388   -1.752361 O.2        1 UNL1     -0.2851
     45 O         -8.556132   6.514596   0.623412 O.3        1 UNL1     -0.5056
     46 O         -2.758513   3.57207   0.702339 O.2        1 UNL1     -0.2836
     47 C         1.104312   4.994933   -1.135117 C.3        1 UNL1     -0.0566
     48 O         1.656506   2.294879   -1.867826 O.3        1 UNL1     -0.3909
     49 C         1.044857   -0.104615   0.144739 C.3        1 UNL1     -0.0577
     50 O         1.178213   2.589794   2.536831 O.3        1 UNL1     -0.3910
     51 O         0.066176   1.406982   4.879731 O.3        1 UNL1     -0.3753
     52 C         -1.432358   -0.307935   1.893507 C.3        1 UNL1     -0.0564
     53 O         1.19152   -2.135131   2.592794 O.3        1 UNL1     -0.4608
     54 C         2.290278   -2.425535   1.827074 C.2        1 UNL1     0.3042
     55 O         2.352023   -2.479274   0.599419 O.2        1 UNL1     -0.2512
     56 C         3.542698   -2.638701   2.628772 C.3        1 UNL1     0.0332
     57 C         2.504526   0.678783   4.617884 C.3        1 UNL1     -0.0567
     58 C         -4.660691   2.432584   3.139626 C.3        1 UNL1     0.0210
     59 C         1.275268   0.65008   4.912344 C.3        1 UNL1     0.0372
     60 C         -1.839445   1.859916   3.624223 C.2        1 UNL1     -0.0208
     61 C         -1.736295   3.18551   3.728661 C.2        1 UNL1     0.0882
     62 H         -0.6819   4.055027   -0.420737 H        1 UNL1     0.0365
     63 H         -2.141454   5.119163   -1.373389 H        1 UNL1     0.0576
     64 H         -1.562324   5.346944   -4.391584 H        1 UNL1     0.0615
     65 H         -3.967418   6.248113   -2.613585 H        1 UNL1     0.0622
     66 H         -1.640575   0.295958   4.978706 H        1 UNL1     0.0645
     67 H         -1.110919   -1.278232   3.65901 H        1 UNL1     0.0362
     68 H         0.985465   -1.185505   4.30131 H        1 UNL1     0.0741
     69 H         2.975615   -0.20126   2.853223 H        1 UNL1     0.0359
     70 H         2.960241   1.861459   1.990399 H        1 UNL1     0.0600
     71 H         2.578323   1.230218   -0.049303 H        1 UNL1     0.0348
     72 H         0.940576   3.030359   0.047251 H        1 UNL1     0.0602
     73 H         -2.685502   1.429326   3.148799 H        1 UNL1     0.0628
     74 H         -0.874818   3.705804   4.148647 H        1 UNL1     0.1022
     75 H         -4.080738   7.167532   -6.60228 H        1 UNL1     0.0279
     76 H         -4.919142   5.669426   -6.680114 H        1 UNL1     0.0279
     77 H         -5.768813   7.222732   -6.305149 H        1 UNL1     0.0279
     78 H         -6.601004   4.88063   -4.787743 H        1 UNL1     0.1553
     79 H         -5.077654   3.620185   -4.657711 H        1 UNL1     0.1484
     80 H         -4.114543   0.519146   -2.684018 H        1 UNL1     0.0317
     81 H         -5.663601   1.326797   -2.488971 H        1 UNL1     0.0317
     82 H         -5.827333   1.735355   -4.958784 H        1 UNL1     0.0428
     83 H         -5.647284   0.040215   -4.564088 H        1 UNL1     0.0428
     84 H         -2.139006   2.080844   -5.841176 H        1 UNL1     0.0428
     85 H         -3.596444   3.010007   -5.800531 H        1 UNL1     0.0428
     86 H         -2.036119   3.269045   -3.870988 H        1 UNL1     0.0317
     87 H         -2.140453   1.624687   -3.437913 H        1 UNL1     0.0317
     88 H         -4.97315   0.861933   -7.111426 H        1 UNL1     0.0429
     89 H         -3.242325   0.580527   -7.31463 H        1 UNL1     0.0429
     90 H         -5.456048   -1.297967   -6.531349 H        1 UNL1     0.0308
     91 H         -2.761084   -1.571632   -7.966248 H        1 UNL1     0.0233
     92 H         -3.792512   -2.96936   -7.568747 H        1 UNL1     0.0233
     93 H         -4.364356   -1.736503   -8.672223 H        1 UNL1     0.0233
     94 H         -3.674948   -2.747757   -5.308742 H        1 UNL1     0.0233
     95 H         -2.884949   -1.193979   -4.998899 H        1 UNL1     0.0233
     96 H         -4.541806   -1.479576   -4.418166 H        1 UNL1     0.0233
     97 H         -8.471128   6.321672   3.204184 H        1 UNL1     0.0280
     98 H         -7.352797   5.293321   4.058009 H        1 UNL1     0.0280
     99 H         -6.91752   6.996827   3.72887 H        1 UNL1     0.0280
     100 H         -8.563856   7.137171   -0.082253 H        1 UNL1     0.2922
     101 H         1.142851   5.311175   -0.092926 H        1 UNL1     0.0236
     102 H         1.096981   5.842457   -1.819685 H        1 UNL1     0.0236
     103 H         2.07286   4.498452   -1.312922 H        1 UNL1     0.0236
     104 H         2.32   1.63462   -1.587107 H        1 UNL1     0.2098
     105 H         1.454584   -0.598035   -0.733027 H        1 UNL1     0.0234
     106 H         1.119721   -0.757271   1.01443 H        1 UNL1     0.0234
     107 H         -0.0   0.0   0.0 H        1 UNL1     0.0234
     108 H         1.159263   3.285906   1.852114 H        1 UNL1     0.2098
     109 H         -1.134393   0.551142   1.276323 H        1 UNL1     0.0234
     110 H         -1.371542   -1.225395   1.298266 H        1 UNL1     0.0234
     111 H         -2.507328   -0.181885   2.07924 H        1 UNL1     0.0234
     112 H         4.382879   -2.84491   1.958757 H        1 UNL1     0.0342
     113 H         3.760734   -1.793764   3.280221 H        1 UNL1     0.0342
     114 H         3.39588   -3.521381   3.266333 H        1 UNL1     0.0342
     115 H         3.57532   0.920372   4.665021 H        1 UNL1     0.0234
     116 H         1.958049   1.525706   5.037568 H        1 UNL1     0.0234
     117 H         2.442654   -0.15636   5.336667 H        1 UNL1     0.0234
     118 H         -5.122921   2.00415   2.233098 H        1 UNL1     0.0309
     119 H         -4.005456   1.683659   3.595676 H        1 UNL1     0.0309
     120 H         -5.508264   2.550719   3.823564 H        1 UNL1     0.0309
     121 H         1.84487   0.975955   5.782238 H        1 UNL1     0.0524
     122 H         1.089126   -0.431145   5.023438 H        1 UNL1     0.0524
     123 H         1.848266   0.817783   4.004797 H        1 UNL1     0.0524
@<TRIPOS>BOND
     1     1     2    1
     2     1    42    1
     3     2     3    2
     4     3     4    1
     5     4     5    2
     6     5     7    1
     7     6    75    1
     8     6    76    1
     9     6    77    1
    10     7     9   am
    11     9    10    1
    12    10    11    2
    13    10    43    1
    14    11    14    1
    15    11    15    1
    16    12    13   ar
    17    12    27   ar
    18    12    43    1
    19    13    14    1
    20    13    30   ar
    21    14    17    2
    22    15    16    1
    23    16    17    1
    24    16    18    1
    25    16    22    1
    26    18    19    1
    27    19    20    1
    28    20    21    1
    29    21    22    1
    30    23    24    1
    31    23    88    1
    32    23    89    1
    33    24    25    1
    34    24    26    1
    35    24    90    1
    36    25    91    1
    37    25    92    1
    38    25    93    1
    39    26    94    1
    40    26    95    1
    41    26    96    1
    42    27    28   ar
    43    28    29   ar
    44    29    30   ar
    45    29    31    1
    46    30    33    1
    47    31    32    1
    48    32    33    1
    49    32    35    1
    50    34    97    1
    51    34    98    1
    52    34    99    1
    53    35    61    1
    54    36    37    1
    55    36    60    1
    56    37    38    1
    57    38    39    1
    58    39    40    1
    59    40    41    1
    60    41    42    1
    61    45   100    1
    62    47   101    1
    63    47   102    1
    64    47   103    1
    65    48   104    1
    66    49   105    1
    67    49   106    1
    68    49   107    1
    69    50   108    1
    70    51    59    1
    71    52   109    1
    72    52   110    1
    73    52   111    1
    74    53    54    1
    75    54    55    2
    76    54    56    1
    77    56   112    1
    78    56   113    1
    79    56   114    1
    80    57   115    1
    81    57   116    1
    82    57   117    1
    83    58   118    1
    84    58   119    1
    85    58   120    1
    86    59   121    1
    87    59   122    1
    88    59   123    1
    89    60    61    2
    90     1    47    1
    91     1    62    1
    92     2    63    1
    93     3    64    1
    94     4    65    1
    95     5     6    1
    96     7     8    2
    97     9    78    1
    98    15    79    1
    99    18    80    1
   100    18    81    1
   101    19    82    1
   102    19    83    1
   103    20    23    1
   104    21    84    1
   105    21    85    1
   106    22    86    1
   107    22    87    1
   108    27    45    1
   109    28    34    1
   110    32    58    1
   111    33    46    2
   112    36    51    1
   113    36    66    1
   114    37    52    1
   115    37    67    1
   116    38    53    1
   117    38    68    1
   118    42    48    1
   119    42    72    1
   120    43    44    2
   121    60    73    1
   122    61    74    1
   123    39    69    1
   124    39    57    1
   125    40    70    1
   126    40    50    1
   127    41    71    1
   128    41    49    1
