@<TRIPOS>MOLECULE
*****
 123 128 0 0 0
SMALL
GASTEIGER

@<TRIPOS>ATOM
     1 C         5.167792   1.74647   0.492907 C.3        1 UNL1     0.0009
     2 C         6.605048   2.552115   -0.356957 C.2        1 UNL1     -0.0787
     3 C         7.887034   2.453492   -1.022413 C.2        1 UNL1     -0.0649
     4 C         8.765227   3.688387   -1.777507 C.2        1 UNL1     -0.0542
     5 C         9.785604   3.980781   -2.715811 C.2        1 UNL1     0.0115
     6 C         10.913712   3.355018   -3.581326 C.3        1 UNL1     -0.0348
     7 C         9.881768   5.464135   -3.321948 C.2        1 UNL1     0.2441
     8 O         10.705944   6.285313   -2.943892 O.2        1 UNL1     -0.2702
     9 N         9.131912   5.671723   -4.492748 N.am        1 UNL1     -0.2772
     10 C         7.849303   6.058924   -4.179198 C.2        1 UNL1     0.1049
     11 C         7.003001   5.087834   -3.887686 C.2        1 UNL1     0.0801
     12 C         6.551329   7.665845   -2.768382 C.ar        1 UNL1     0.0753
     13 C         5.791647   6.538176   -2.321332 C.ar        1 UNL1     0.0305
     14 C         5.908123   5.232572   -2.966996 C.2        1 UNL1     0.0924
     15 N         7.125044   3.758836   -4.047058 N.pl3        1 UNL1     -0.3170
     16 C         5.854835   3.16018   -3.733314 C.3        1 UNL1     0.1275
     17 N         5.218652   4.11548   -2.753316 N.2        1 UNL1     -0.2557
     18 C         5.002305   3.21994   -4.997166 C.3        1 UNL1     0.0016
     19 C         5.757129   2.535763   -6.125763 C.3        1 UNL1     0.0026
     20 N         6.026545   1.157446   -5.740164 N.3        1 UNL1     -0.3018
     21 C         6.789543   0.99641   -4.5007 C.3        1 UNL1     0.0026
     22 C         6.010859   1.687028   -3.379722 C.3        1 UNL1     0.0016
     23 C         6.470928   0.337962   -6.849945 C.3        1 UNL1     0.0012
     24 C         5.315594   0.08925   -7.83234 C.3        1 UNL1     -0.0339
     25 C         5.34188   1.092688   -8.99702 C.3        1 UNL1     -0.0615
     26 C         5.354439   -1.345359   -8.329501 C.3        1 UNL1     -0.0615
     27 C         6.347131   8.933508   -2.228519 C.ar        1 UNL1     0.1347
     28 C         5.387978   9.203276   -1.268675 C.ar        1 UNL1     0.0342
     29 C         4.685786   8.069044   -0.808666 C.ar        1 UNL1     0.1435
     30 C         4.904752   6.787033   -1.314355 C.ar        1 UNL1     0.0774
     31 O         3.644653   8.182895   0.044613 O.3        1 UNL1     -0.4436
     32 C         2.922437   6.950442   -0.097996 C.3        1 UNL1     0.3143
     33 C         3.935396   5.95699   -0.630144 C.2        1 UNL1     0.2504
     34 C         4.941671   10.569486   -0.827786 C.3        1 UNL1     -0.0327
     35 O         2.561302   6.513607   1.218062 O.2        1 UNL1     -0.4528
     36 C         -0.682549   4.583012   0.820159 C.3        1 UNL1     0.0854
     37 C         -0.988237   3.322774   -0.077547 C.3        1 UNL1     0.0236
     38 C         -1.589552   2.061829   0.709969 C.3        1 UNL1     0.1131
     39 C         -0.86433   1.530264   2.011415 C.3        1 UNL1     0.0200
     40 C         0.796786   1.383941   2.05292 C.3        1 UNL1     0.0661
     41 C         1.756059   0.61493   0.884148 C.3        1 UNL1     0.0091
     42 C         3.463939   0.976824   0.320604 C.3        1 UNL1     0.0661
     43 C         7.501524   7.457955   -3.889173 C.2        1 UNL1     0.2131
     44 O         7.901982   8.356009   -4.607414 O.2        1 UNL1     -0.2851
     45 O         7.159979   9.968342   -2.686597 O.3        1 UNL1     -0.5056
     46 O         3.950798   4.753419   -0.499632 O.2        1 UNL1     -0.2836
     47 C         5.563638   1.31649   1.931102 C.3        1 UNL1     -0.0566
     48 O         3.91183   -0.434507   0.402175 O.3        1 UNL1     -0.3909
     49 C         0.922037   0.383002   -0.356058 C.3        1 UNL1     -0.0577
     50 O         1.397463   2.601438   2.446126 O.3        1 UNL1     -0.3910
     51 O         -0.807031   4.393089   2.211512 O.3        1 UNL1     -0.3753
     52 C         0.056397   3.162072   -1.229878 C.3        1 UNL1     -0.0564
     53 O         -2.19244   1.023323   -0.190229 O.3        1 UNL1     -0.4608
     54 C         -2.427531   -0.283394   0.149111 C.2        1 UNL1     0.3042
     55 O         -1.858801   -1.282693   -0.288824 O.2        1 UNL1     -0.2512
     56 C         -3.46786   -0.44879   1.220126 C.3        1 UNL1     0.0332
     57 C         -1.585322   2.199317   3.27265 C.3        1 UNL1     -0.0567
     58 C         1.847593   7.196269   -1.182342 C.3        1 UNL1     0.0210
     59 C         -1.119841   5.572078   2.951782 C.3        1 UNL1     0.0372
     60 C         0.64679   5.211528   0.589969 C.2        1 UNL1     -0.0208
     61 C         1.559739   5.646147   1.459667 C.2        1 UNL1     0.0882
     62 H         4.692311   2.730846   0.580285 H        1 UNL1     0.0365
     63 H         6.339269   3.606015   -0.251483 H        1 UNL1     0.0576
     64 H         8.344286   1.486477   -1.24357 H        1 UNL1     0.0615
     65 H         8.278496   4.603936   -1.430597 H        1 UNL1     0.0622
     66 H         -1.426784   5.329954   0.509936 H        1 UNL1     0.0645
     67 H         -1.853509   3.632674   -0.68896 H        1 UNL1     0.0362
     68 H         -2.536494   2.499071   1.061597 H        1 UNL1     0.0741
     69 H         -1.196366   0.519279   2.206529 H        1 UNL1     0.0359
     70 H         0.908065   0.72337   2.934012 H        1 UNL1     0.0600
     71 H         1.799074   -0.406346   1.31088 H        1 UNL1     0.0348
     72 H         3.358076   1.464869   1.300359 H        1 UNL1     0.0602
     73 H         0.764998   5.408943   -0.446517 H        1 UNL1     0.0628
     74 H         1.541867   5.435264   2.529455 H        1 UNL1     0.1022
     75 H         10.957645   2.249686   -3.428534 H        1 UNL1     0.0279
     76 H         10.800348   3.438089   -4.659898 H        1 UNL1     0.0279
     77 H         11.91886   3.659184   -3.254428 H        1 UNL1     0.0279
     78 H         9.069616   4.801915   -5.017752 H        1 UNL1     0.1553
     79 H         7.790245   3.330665   -4.664398 H        1 UNL1     0.1484
     80 H         4.040753   2.729415   -4.803338 H        1 UNL1     0.0317
     81 H         4.776239   4.256856   -5.267999 H        1 UNL1     0.0317
     82 H         6.688093   3.066682   -6.373441 H        1 UNL1     0.0428
     83 H         5.132192   2.591386   -7.01762 H        1 UNL1     0.0428
     84 H         6.90931   -0.046663   -4.191725 H        1 UNL1     0.0428
     85 H         7.819829   1.363983   -4.604224 H        1 UNL1     0.0428
     86 H         6.526973   1.436233   -2.471583 H        1 UNL1     0.0317
     87 H         5.031165   1.209823   -3.254939 H        1 UNL1     0.0317
     88 H         7.267356   0.879497   -7.376953 H        1 UNL1     0.0429
     89 H         6.903007   -0.608086   -6.499125 H        1 UNL1     0.0429
     90 H         4.36267   0.196292   -7.300653 H        1 UNL1     0.0308
     91 H         6.29208   1.049629   -9.537731 H        1 UNL1     0.0233
     92 H         4.523503   0.897174   -9.6939 H        1 UNL1     0.0233
     93 H         5.214856   2.128274   -8.658995 H        1 UNL1     0.0233
     94 H         4.659422   -1.474057   -9.166295 H        1 UNL1     0.0233
     95 H         6.359165   -1.59052   -8.685006 H        1 UNL1     0.0233
     96 H         5.078074   -2.049126   -7.539372 H        1 UNL1     0.0233
     97 H         4.14605   10.519966   -0.090382 H        1 UNL1     0.0280
     98 H         5.75379   11.137893   -0.355947 H        1 UNL1     0.0280
     99 H         4.571374   11.135499   -1.69819 H        1 UNL1     0.0280
     100 H         6.693362   10.718974   -3.00977 H        1 UNL1     0.2922
     101 H         4.700517   0.883149   2.435972 H        1 UNL1     0.0236
     102 H         6.014672   2.121506   2.510326 H        1 UNL1     0.0236
     103 H         6.319514   0.513469   1.929996 H        1 UNL1     0.0236
     104 H         4.331122   -0.56087   1.275787 H        1 UNL1     0.2098
     105 H         0.70977   1.282076   -0.929137 H        1 UNL1     0.0234
     106 H         1.291301   -0.404931   -1.012361 H        1 UNL1     0.0234
     107 H         0.0   -0.0   0.0 H        1 UNL1     0.0234
     108 H         1.199963   3.259739   1.752295 H        1 UNL1     0.2098
     109 H         1.081099   3.048043   -0.849491 H        1 UNL1     0.0234
     110 H         -0.176288   2.335218   -1.90952 H        1 UNL1     0.0234
     111 H         0.078135   4.045008   -1.882486 H        1 UNL1     0.0234
     112 H         -3.600906   -1.510531   1.448927 H        1 UNL1     0.0342
     113 H         -3.224568   0.116928   2.118244 H        1 UNL1     0.0342
     114 H         -4.422201   -0.065422   0.833567 H        1 UNL1     0.0342
     115 H         -2.655069   1.95153   3.310481 H        1 UNL1     0.0234
     116 H         -1.149195   1.91916   4.233563 H        1 UNL1     0.0234
     117 H         -1.6234   3.301201   3.224236 H        1 UNL1     0.0234
     118 H         0.946659   7.683509   -0.770128 H        1 UNL1     0.0309
     119 H         2.217411   7.784252   -2.028341 H        1 UNL1     0.0309
     120 H         1.458679   6.264576   -1.607548 H        1 UNL1     0.0309
     121 H         -0.298438   6.274891   2.815008 H        1 UNL1     0.0524
     122 H         -2.039335   6.061619   2.589956 H        1 UNL1     0.0524
     123 H         -1.238142   5.33418   4.005111 H        1 UNL1     0.0524
@<TRIPOS>BOND
     1     1     2    1
     2     1    42    1
     3     2     3    2
     4     3     4    1
     5     4     5    2
     6     5     7    1
     7     6    75    1
     8     6    76    1
     9     6    77    1
    10     7     9   am
    11     9    10    1
    12    10    11    2
    13    10    43    1
    14    11    14    1
    15    11    15    1
    16    12    13   ar
    17    12    27   ar
    18    12    43    1
    19    13    14    1
    20    13    30   ar
    21    14    17    2
    22    15    16    1
    23    16    17    1
    24    16    18    1
    25    16    22    1
    26    18    19    1
    27    19    20    1
    28    20    21    1
    29    21    22    1
    30    23    24    1
    31    23    88    1
    32    23    89    1
    33    24    25    1
    34    24    26    1
    35    24    90    1
    36    25    91    1
    37    25    92    1
    38    25    93    1
    39    26    94    1
    40    26    95    1
    41    26    96    1
    42    27    28   ar
    43    28    29   ar
    44    29    30   ar
    45    29    31    1
    46    30    33    1
    47    31    32    1
    48    32    33    1
    49    32    35    1
    50    34    97    1
    51    34    98    1
    52    34    99    1
    53    35    61    1
    54    36    37    1
    55    36    60    1
    56    37    38    1
    57    38    39    1
    58    39    40    1
    59    40    41    1
    60    41    42    1
    61    45   100    1
    62    47   101    1
    63    47   102    1
    64    47   103    1
    65    48   104    1
    66    49   105    1
    67    49   106    1
    68    49   107    1
    69    50   108    1
    70    51    59    1
    71    52   109    1
    72    52   110    1
    73    52   111    1
    74    53    54    1
    75    54    55    2
    76    54    56    1
    77    56   112    1
    78    56   113    1
    79    56   114    1
    80    57   115    1
    81    57   116    1
    82    57   117    1
    83    58   118    1
    84    58   119    1
    85    58   120    1
    86    59   121    1
    87    59   122    1
    88    59   123    1
    89    60    61    2
    90     1    47    1
    91     1    62    1
    92     2    63    1
    93     3    64    1
    94     4    65    1
    95     5     6    1
    96     7     8    2
    97     9    78    1
    98    15    79    1
    99    18    80    1
   100    18    81    1
   101    19    82    1
   102    19    83    1
   103    20    23    1
   104    21    84    1
   105    21    85    1
   106    22    86    1
   107    22    87    1
   108    27    45    1
   109    28    34    1
   110    32    58    1
   111    33    46    2
   112    36    51    1
   113    36    66    1
   114    37    52    1
   115    37    67    1
   116    38    53    1
   117    38    68    1
   118    42    48    1
   119    42    72    1
   120    43    44    2
   121    60    73    1
   122    61    74    1
   123    39    69    1
   124    39    57    1
   125    40    70    1
   126    40    50    1
   127    41    71    1
   128    41    49    1
