@<TRIPOS>MOLECULE
*****
 123 128 0 0 0
SMALL
GASTEIGER

@<TRIPOS>ATOM
     1 C         5.169061   1.740686   0.499929 C.3        1 UNL1     0.0009
     2 C         6.60857   2.5442   -0.348137 C.2        1 UNL1     -0.0787
     3 C         7.891445   2.443722   -1.0116 C.2        1 UNL1     -0.0649
     4 C         8.772263   3.677204   -1.765948 C.2        1 UNL1     -0.0542
     5 C         9.794412   3.967926   -2.702842 C.2        1 UNL1     0.0115
     6 C         10.923079   3.340399   -3.566348 C.3        1 UNL1     -0.0348
     7 C         9.893275   5.450876   -3.309535 C.2        1 UNL1     0.2441
     8 O         10.717863   6.271244   -2.930619 O.2        1 UNL1     -0.2702
     9 N         9.145444   5.658806   -4.481569 N.am        1 UNL1     -0.2772
     10 C         7.862828   6.047694   -4.170148 C.2        1 UNL1     0.1049
     11 C         7.01492   5.077759   -3.87946 C.2        1 UNL1     0.0801
     12 C         6.564647   7.656843   -2.762065 C.ar        1 UNL1     0.0753
     13 C         5.802935   6.530299   -2.315632 C.ar        1 UNL1     0.0305
     14 C         5.918822   5.224249   -2.9605 C.2        1 UNL1     0.0924
     15 N         7.135608   3.74854   -4.038016 N.pl3        1 UNL1     -0.3170
     16 C         5.864208   3.151558   -3.725915 C.3        1 UNL1     0.1275
     17 N         5.227686   4.108087   -2.747336 N.2        1 UNL1     -0.2557
     18 C         5.013667   3.211739   -4.991087 C.3        1 UNL1     0.0016
     19 C         5.769379   2.52612   -6.118214 C.3        1 UNL1     0.0026
     20 N         6.036555   1.147664   -5.731553 N.3        1 UNL1     -0.3018
     21 C         6.797479   0.986303   -4.490857 C.3        1 UNL1     0.0026
     22 C         6.017927   1.678388   -3.371389 C.3        1 UNL1     0.0016
     23 C         6.481636   0.32712   -6.84027 C.3        1 UNL1     0.0012
     24 C         5.326373   0.07569   -7.822057 C.3        1 UNL1     -0.0339
     25 C         5.351253   1.077507   -8.988162 C.3        1 UNL1     -0.0615
     26 C         5.366756   -1.359576   -8.317194 C.3        1 UNL1     -0.0615
     27 C         6.361153   8.925007   -2.223113 C.ar        1 UNL1     0.1347
     28 C         5.40087   9.196383   -1.264853 C.ar        1 UNL1     0.0342
     29 C         4.69662   8.063213   -0.805372 C.ar        1 UNL1     0.1435
     30 C         4.914813   6.780699   -1.31012 C.ar        1 UNL1     0.0774
     31 O         3.654332   8.178719   0.046273 O.3        1 UNL1     -0.4436
     32 C         2.930854   6.947066   -0.096846 C.3        1 UNL1     0.3143
     33 C         3.943425   5.952146   -0.626987 C.2        1 UNL1     0.2504
     34 C         4.955536   10.563336   -0.825289 C.3        1 UNL1     -0.0327
     35 O         2.5672   6.511291   1.21887 O.2        1 UNL1     -0.4528
     36 C         -0.678359   4.5844   0.816963 C.3        1 UNL1     0.0854
     37 C         -0.984199   3.324103   -0.080608 C.3        1 UNL1     0.0236
     38 C         -1.58822   2.064255   0.706593 C.3        1 UNL1     0.1131
     39 C         -0.865611   1.53244   2.00939 C.3        1 UNL1     0.0200
     40 C         0.795263   1.384143   2.053483 C.3        1 UNL1     0.0661
     41 C         1.755383   0.613426   0.886531 C.3        1 UNL1     0.0091
     42 C         3.464549   0.973002   0.325407 C.3        1 UNL1     0.0661
     43 C         7.516289   7.44728   -3.881314 C.2        1 UNL1     0.2131
     44 O         7.918914   8.34451   -4.599373 O.2        1 UNL1     -0.2851
     45 O         7.175936   9.958646   -2.680448 O.3        1 UNL1     -0.5056
     46 O         3.957184   4.74862   -0.49588 O.2        1 UNL1     -0.2836
     47 C         5.56221   1.310915   1.938926 C.3        1 UNL1     -0.0566
     48 O         3.910621   -0.438827   0.408327 O.3        1 UNL1     -0.3909
     49 C         0.922964   0.381908   -0.354828 C.3        1 UNL1     -0.0577
     50 O         1.396804   2.601106   2.447022 O.3        1 UNL1     -0.3910
     51 O         -0.805178   4.395289   2.208216 O.3        1 UNL1     -0.3753
     52 C         0.061987   3.161599   -1.231277 C.3        1 UNL1     -0.0564
     53 O         -2.190989   1.026045   -0.194026 O.3        1 UNL1     -0.4608
     54 C         -2.416058   -0.283488   0.141233 C.2        1 UNL1     0.3042
     55 O         -1.84483   -1.277548   -0.30529 O.2        1 UNL1     -0.2512
     56 C         -3.447506   -0.459598   1.219107 C.3        1 UNL1     0.0332
     57 C         -1.587711   2.202958   3.269212 C.3        1 UNL1     -0.0567
     58 C         1.857951   7.193666   -1.182938 C.3        1 UNL1     0.0210
     59 C         -1.148621   5.568689   2.943773 C.3        1 UNL1     0.0372
     60 C         0.652081   5.211211   0.588491 C.2        1 UNL1     -0.0208
     61 C         1.564231   5.645149   1.459366 C.2        1 UNL1     0.0882
     62 H         4.694631   2.725672   0.586119 H        1 UNL1     0.0365
     63 H         6.343897   3.598469   -0.243565 H        1 UNL1     0.0576
     64 H         8.34787   1.476054   -1.231605 H        1 UNL1     0.0615
     65 H         8.286106   4.593501   -1.42021 H        1 UNL1     0.0622
     66 H         -1.421226   5.332087   0.505258 H        1 UNL1     0.0645
     67 H         -1.84817   3.63475   -0.69348 H        1 UNL1     0.0362
     68 H         -2.535169   2.502801   1.056577 H        1 UNL1     0.0741
     69 H         -1.199156   0.521947   2.204479 H        1 UNL1     0.0359
     70 H         0.904413   0.723859   2.935056 H        1 UNL1     0.0600
     71 H         1.796525   -0.407698   1.313813 H        1 UNL1     0.0348
     72 H         3.357786   1.461641   1.304769 H        1 UNL1     0.0602
     73 H         0.772097   5.407991   -0.447908 H        1 UNL1     0.0628
     74 H         1.544484   5.434796   2.529226 H        1 UNL1     0.1022
     75 H         10.965453   2.235088   -3.412965 H        1 UNL1     0.0279
     76 H         10.811449   3.423092   -4.645129 H        1 UNL1     0.0279
     77 H         11.928094   3.643514   -3.23807 H        1 UNL1     0.0279
     78 H         9.082901   4.788823   -5.006255 H        1 UNL1     0.1553
     79 H         7.80123   3.319278   -4.654144 H        1 UNL1     0.1484
     80 H         4.051234   2.72246   -4.798485 H        1 UNL1     0.0317
     81 H         4.789256   4.248797   -5.262754 H        1 UNL1     0.0317
     82 H         6.701354   3.055803   -6.36473 H        1 UNL1     0.0428
     83 H         5.145861   2.582068   -7.011044 H        1 UNL1     0.0428
     84 H         6.915525   -0.056766   -4.181206 H        1 UNL1     0.0428
     85 H         7.828362   1.35259   -4.592992 H        1 UNL1     0.0428
     86 H         6.532362   1.427407   -2.462349 H        1 UNL1     0.0317
     87 H         5.037472   1.202419   -3.247865 H        1 UNL1     0.0317
     88 H         7.277326   0.868821   -7.36822 H        1 UNL1     0.0429
     89 H         6.914877   -0.617934   -6.488205 H        1 UNL1     0.0429
     90 H         4.373443   0.182392   -7.290312 H        1 UNL1     0.0308
     91 H         6.300198   1.03259   -9.530922 H        1 UNL1     0.0233
     92 H         4.531101   0.882008   -9.682957 H        1 UNL1     0.0233
     93 H         5.226197   2.113703   -8.651273 H        1 UNL1     0.0233
     94 H         4.670558   -1.490638   -9.152638 H        1 UNL1     0.0233
     95 H         6.371291   -1.603599   -8.674019 H        1 UNL1     0.0233
     96 H         5.092871   -2.062644   -7.525581 H        1 UNL1     0.0233
     97 H         4.160839   10.515078   -0.086806 H        1 UNL1     0.0280
     98 H         5.768425   11.132151   -0.355271 H        1 UNL1     0.0280
     99 H         4.584302   11.128256   -1.696005 H        1 UNL1     0.0280
     100 H         6.71071   10.709684   -3.004684 H        1 UNL1     0.2922
     101 H         4.697805   0.87885   2.442692 H        1 UNL1     0.0236
     102 H         6.013332   2.115665   2.518452 H        1 UNL1     0.0236
     103 H         6.317122   0.506987   1.939348 H        1 UNL1     0.0236
     104 H         4.328436   -0.565277   1.282633 H        1 UNL1     0.2098
     105 H         0.712488   1.280991   -0.928553 H        1 UNL1     0.0234
     106 H         1.292382   -0.406652   -1.010291 H        1 UNL1     0.0234
     107 H         0.0   -0.0   0.0 H        1 UNL1     0.0234
     108 H         1.198154   3.260235   1.754306 H        1 UNL1     0.2098
     109 H         1.085974   3.046521   -0.849283 H        1 UNL1     0.0234
     110 H         -0.170659   2.334701   -1.910879 H        1 UNL1     0.0234
     111 H         0.085775   4.044197   -1.88427 H        1 UNL1     0.0234
     112 H         -3.575017   -1.523279   1.441973 H        1 UNL1     0.0342
     113 H         -3.199305   0.101128   2.11901 H        1 UNL1     0.0342
     114 H         -4.406153   -0.077156   0.842412 H        1 UNL1     0.0342
     115 H         -2.652406   1.936316   3.319363 H        1 UNL1     0.0234
     116 H         -1.138258   1.941926   4.22937 H        1 UNL1     0.0234
     117 H         -1.646244   3.303335   3.208506 H        1 UNL1     0.0234
     118 H         0.956979   7.682183   -0.772321 H        1 UNL1     0.0309
     119 H         2.229757   7.780802   -2.028653 H        1 UNL1     0.0309
     120 H         1.468564   6.262238   -1.608291 H        1 UNL1     0.0309
     121 H         -0.34444   6.291042   2.806458 H        1 UNL1     0.0524
     122 H         -2.079035   6.034243   2.578224 H        1 UNL1     0.0524
     123 H         -1.263485   5.33147   3.997637 H        1 UNL1     0.0524
@<TRIPOS>BOND
     1     1     2    1
     2     1    42    1
     3     2     3    2
     4     3     4    1
     5     4     5    2
     6     5     7    1
     7     6    75    1
     8     6    76    1
     9     6    77    1
    10     7     9   am
    11     9    10    1
    12    10    11    2
    13    10    43    1
    14    11    14    1
    15    11    15    1
    16    12    13   ar
    17    12    27   ar
    18    12    43    1
    19    13    14    1
    20    13    30   ar
    21    14    17    2
    22    15    16    1
    23    16    17    1
    24    16    18    1
    25    16    22    1
    26    18    19    1
    27    19    20    1
    28    20    21    1
    29    21    22    1
    30    23    24    1
    31    23    88    1
    32    23    89    1
    33    24    25    1
    34    24    26    1
    35    24    90    1
    36    25    91    1
    37    25    92    1
    38    25    93    1
    39    26    94    1
    40    26    95    1
    41    26    96    1
    42    27    28   ar
    43    28    29   ar
    44    29    30   ar
    45    29    31    1
    46    30    33    1
    47    31    32    1
    48    32    33    1
    49    32    35    1
    50    34    97    1
    51    34    98    1
    52    34    99    1
    53    35    61    1
    54    36    37    1
    55    36    60    1
    56    37    38    1
    57    38    39    1
    58    39    40    1
    59    40    41    1
    60    41    42    1
    61    45   100    1
    62    47   101    1
    63    47   102    1
    64    47   103    1
    65    48   104    1
    66    49   105    1
    67    49   106    1
    68    49   107    1
    69    50   108    1
    70    51    59    1
    71    52   109    1
    72    52   110    1
    73    52   111    1
    74    53    54    1
    75    54    55    2
    76    54    56    1
    77    56   112    1
    78    56   113    1
    79    56   114    1
    80    57   115    1
    81    57   116    1
    82    57   117    1
    83    58   118    1
    84    58   119    1
    85    58   120    1
    86    59   121    1
    87    59   122    1
    88    59   123    1
    89    60    61    2
    90     1    47    1
    91     1    62    1
    92     2    63    1
    93     3    64    1
    94     4    65    1
    95     5     6    1
    96     7     8    2
    97     9    78    1
    98    15    79    1
    99    18    80    1
   100    18    81    1
   101    19    82    1
   102    19    83    1
   103    20    23    1
   104    21    84    1
   105    21    85    1
   106    22    86    1
   107    22    87    1
   108    27    45    1
   109    28    34    1
   110    32    58    1
   111    33    46    2
   112    36    51    1
   113    36    66    1
   114    37    52    1
   115    37    67    1
   116    38    53    1
   117    38    68    1
   118    42    48    1
   119    42    72    1
   120    43    44    2
   121    60    73    1
   122    61    74    1
   123    39    69    1
   124    39    57    1
   125    40    70    1
   126    40    50    1
   127    41    71    1
   128    41    49    1
