@<TRIPOS>MOLECULE
*****
 123 128 0 0 0
SMALL
GASTEIGER

@<TRIPOS>ATOM
     1 C         4.787081   -0.877238   -2.515167 C.3        1 UNL1     0.0009
     2 C         5.707537   -0.8235   -4.123554 C.2        1 UNL1     -0.0787
     3 C         6.263295   -1.501117   -5.275949 C.2        1 UNL1     -0.0649
     4 C         6.98433   -0.808997   -6.64249 C.2        1 UNL1     -0.0542
     5 C         7.347813   -1.019133   -7.995562 C.2        1 UNL1     0.0115
     6 C         7.476593   -2.094001   -9.109742 C.3        1 UNL1     -0.0348
     7 C         7.66288   0.253465   -8.921961 C.2        1 UNL1     0.2441
     8 O         8.799733   0.603372   -9.207717 O.2        1 UNL1     -0.2702
     9 N         6.547852   0.782567   -9.594951 N.am        1 UNL1     -0.2772
     10 C         5.911816   1.716604   -8.809869 C.2        1 UNL1     0.1049
     11 C         5.064476   1.243925   -7.913872 C.2        1 UNL1     0.0801
     12 C         6.331673   3.740865   -7.40153 C.ar        1 UNL1     0.0753
     13 C         5.572959   3.089345   -6.377575 C.ar        1 UNL1     0.0305
     14 C         4.804696   1.876443   -6.649035 C.2        1 UNL1     0.0924
     15 N         4.555616   0.007797   -7.773956 N.pl3        1 UNL1     -0.3170
     16 C         3.548227   0.060848   -6.747989 C.3        1 UNL1     0.1275
     17 N         3.975566   1.201955   -5.857495 N.2        1 UNL1     -0.2557
     18 C         2.249017   0.505927   -7.412564 C.3        1 UNL1     0.0016
     19 C         1.934042   -0.449092   -8.552878 C.3        1 UNL1     0.0026
     20 N         1.812157   -1.796705   -8.014257 N.3        1 UNL1     -0.3018
     21 C         2.992272   -2.290508   -7.301618 C.3        1 UNL1     0.0026
     22 C         3.287811   -1.318793   -6.157799 C.3        1 UNL1     0.0016
     23 C         1.223777   -2.729   -8.95515 C.3        1 UNL1     0.0012
     24 C         -0.267277   -2.418396   -9.160185 C.3        1 UNL1     -0.0339
     25 C         -0.576762   -2.092226   -10.630521 C.3        1 UNL1     -0.0615
     26 C         -1.114197   -3.57284   -8.653464 C.3        1 UNL1     -0.0615
     27 C         6.962403   4.960425   -7.167067 C.ar        1 UNL1     0.1347
     28 C         6.873343   5.641503   -5.966129 C.ar        1 UNL1     0.0342
     29 C         6.161987   4.957704   -4.95739 C.ar        1 UNL1     0.1435
     30 C         5.555296   3.718617   -5.166699 C.ar        1 UNL1     0.0774
     31 O         5.893701   5.538052   -3.767337 O.3        1 UNL1     -0.4436
     32 C         4.801984   4.776132   -3.230211 C.3        1 UNL1     0.3143
     33 C         4.884129   3.427875   -3.916991 C.2        1 UNL1     0.2504
     34 C         7.307887   7.059942   -5.722608 C.3        1 UNL1     -0.0327
     35 O         5.079375   4.554756   -1.841939 O.2        1 UNL1     -0.4528
     36 C         1.699871   4.333287   -0.127884 C.3        1 UNL1     0.0854
     37 C         0.497497   3.354867   -0.4186 C.3        1 UNL1     0.0236
     38 C         -0.009613   2.51222   0.848101 C.3        1 UNL1     0.1131
     39 C         1.03295   1.706844   1.723716 C.3        1 UNL1     0.0200
     40 C         2.237079   0.812571   0.993793 C.3        1 UNL1     0.0661
     41 C         2.019892   -0.311853   -0.25765 C.3        1 UNL1     0.0091
     42 C         3.1263   -0.776561   -1.645205 C.3        1 UNL1     0.0661
     43 C         6.350479   3.118813   -8.748733 C.2        1 UNL1     0.2131
     44 O         6.605399   3.731712   -9.76957 O.2        1 UNL1     -0.2851
     45 O         7.7189   5.505056   -8.202696 O.3        1 UNL1     -0.5056
     46 O         4.501767   2.352239   -3.51368 O.2        1 UNL1     -0.2836
     47 C         5.697697   -1.44083   -1.39128 C.3        1 UNL1     -0.0566
     48 O         2.959458   -2.235677   -1.439633 O.3        1 UNL1     -0.3909
     49 C         0.634689   -0.134258   -0.838311 C.3        1 UNL1     -0.0577
     50 O         3.368628   1.617193   0.729402 O.3        1 UNL1     -0.3910
     51 O         2.289915   4.222247   1.147635 O.3        1 UNL1     -0.3753
     52 C         0.587772   2.731248   -1.849647 C.3        1 UNL1     -0.0564
     53 O         -1.349228   1.867421   0.643185 O.3        1 UNL1     -0.4608
     54 C         -1.716134   0.631454   1.107616 C.2        1 UNL1     0.3042
     55 O         -1.795314   -0.414669   0.464813 O.2        1 UNL1     -0.2512
     56 C         -1.986735   0.600116   2.584947 C.3        1 UNL1     0.0332
     57 C         1.439385   2.632896   2.962834 C.3        1 UNL1     -0.0567
     58 C         3.506485   5.488747   -3.683414 C.3        1 UNL1     0.0210
     59 C         2.007566   5.303451   2.034845 C.3        1 UNL1     0.0372
     60 C         2.80827   4.279556   -1.119713 C.2        1 UNL1     -0.0208
     61 C         4.129209   4.245519   -0.938865 C.2        1 UNL1     0.0882
     62 H         4.860306   0.215542   -2.458765 H        1 UNL1     0.0365
     63 H         5.973742   0.234517   -4.170527 H        1 UNL1     0.0576
     64 H         6.11048   -2.570125   -5.440199 H        1 UNL1     0.0615
     65 H         7.163642   0.227909   -6.34558 H        1 UNL1     0.0622
     66 H         1.265012   5.338847   -0.216165 H        1 UNL1     0.0645
     67 H         -0.360032   4.028036   -0.591948 H        1 UNL1     0.0362
     68 H         -0.355449   3.336237   1.490687 H        1 UNL1     0.0741
     69 H         0.50111   0.962082   2.300678 H        1 UNL1     0.0359
     70 H         2.543783   0.175076   1.845023 H        1 UNL1     0.0600
     71 H         1.889493   -1.238283   0.335376 H        1 UNL1     0.0348
     72 H         3.768334   -0.29433   -0.893833 H        1 UNL1     0.0602
     73 H         2.409304   4.40021   -2.096195 H        1 UNL1     0.0628
     74 H         4.615857   4.066744   0.020536 H        1 UNL1     0.1022
     75 H         7.888519   -3.044199   -8.692041 H        1 UNL1     0.0279
     76 H         6.550337   -2.424492   -9.574386 H        1 UNL1     0.0279
     77 H         8.238671   -1.83894   -9.860662 H        1 UNL1     0.0279
     78 H         5.880209   0.038869   -9.787935 H        1 UNL1     0.1553
     79 H         4.550557   -0.678579   -8.505937 H        1 UNL1     0.1484
     80 H         1.448264   0.512924   -6.663223 H        1 UNL1     0.0317
     81 H         2.333749   1.530508   -7.790327 H        1 UNL1     0.0317
     82 H         2.69833   -0.406163   -9.342773 H        1 UNL1     0.0428
     83 H         1.005035   -0.112333   -9.013953 H        1 UNL1     0.0428
     84 H         2.846664   -3.271633   -6.839013 H        1 UNL1     0.0428
     85 H         3.845854   -2.438276   -7.977547 H        1 UNL1     0.0428
     86 H         4.069189   -1.778754   -5.581716 H        1 UNL1     0.0317
     87 H         2.441155   -1.291636   -5.460997 H        1 UNL1     0.0317
     88 H         1.740081   -2.614798   -9.917274 H        1 UNL1     0.0429
     89 H         1.371153   -3.767685   -8.63237 H        1 UNL1     0.0429
     90 H         -0.541778   -1.553072   -8.545305 H        1 UNL1     0.0308
     91 H         0.333678   -1.838734   -11.181832 H        1 UNL1     0.0233
     92 H         -1.06798   -2.937298   -11.118544 H        1 UNL1     0.0233
     93 H         -1.25931   -1.240085   -10.734536 H        1 UNL1     0.0233
     94 H         -2.126145   -3.509276   -9.067901 H        1 UNL1     0.0233
     95 H         -0.678507   -4.523924   -8.972172 H        1 UNL1     0.0233
     96 H         -1.186586   -3.565772   -7.562282 H        1 UNL1     0.0233
     97 H         6.488864   7.683248   -5.376312 H        1 UNL1     0.0280
     98 H         8.084774   7.127886   -4.949894 H        1 UNL1     0.0280
     99 H         7.699146   7.491855   -6.658269 H        1 UNL1     0.0280
     100 H         8.32632   4.906425   -8.600571 H        1 UNL1     0.2922
     101 H         5.304262   -1.148339   -0.417979 H        1 UNL1     0.0236
     102 H         6.744907   -1.164291   -1.50901 H        1 UNL1     0.0236
     103 H         5.698586   -2.543488   -1.372911 H        1 UNL1     0.0236
     104 H         2.929327   -2.39626   -0.476163 H        1 UNL1     0.2098
     105 H         0.525312   0.735588   -1.48113 H        1 UNL1     0.0234
     106 H         0.229399   -1.019455   -1.328303 H        1 UNL1     0.0234
     107 H         -0.0   0.0   0.0 H        1 UNL1     0.0234
     108 H         3.938844   1.12154   0.110572 H        1 UNL1     0.2098
     109 H         0.558463   3.495322   -2.638978 H        1 UNL1     0.0234
     110 H         1.469208   2.095761   -1.987383 H        1 UNL1     0.0234
     111 H         -0.258019   2.06105   -2.053166 H        1 UNL1     0.0234
     112 H         -2.896329   0.025546   2.78458 H        1 UNL1     0.0342
     113 H         -1.142834   0.203704   3.147559 H        1 UNL1     0.0342
     114 H         -2.158271   1.63094   2.924274 H        1 UNL1     0.0342
     115 H         1.649045   2.040385   3.864034 H        1 UNL1     0.0234
     116 H         2.308716   3.266757   2.777006 H        1 UNL1     0.0234
     117 H         0.617404   3.27783   3.318288 H        1 UNL1     0.0234
     118 H         2.98168   5.970754   -2.840054 H        1 UNL1     0.0309
     119 H         3.676871   6.230481   -4.47018 H        1 UNL1     0.0309
     120 H         2.760156   4.791841   -4.080176 H        1 UNL1     0.0309
     121 H         2.824893   5.362628   2.753058 H        1 UNL1     0.0524
     122 H         1.955553   6.272192   1.510562 H        1 UNL1     0.0524
     123 H         1.067188   5.130706   2.550542 H        1 UNL1     0.0524
@<TRIPOS>BOND
     1     1     2    1
     2     1    42    1
     3     2     3    2
     4     3     4    1
     5     4     5    2
     6     5     7    1
     7     6    75    1
     8     6    76    1
     9     6    77    1
    10     7     9   am
    11     9    10    1
    12    10    11    2
    13    10    43    1
    14    11    14    1
    15    11    15    1
    16    12    13   ar
    17    12    27   ar
    18    12    43    1
    19    13    14    1
    20    13    30   ar
    21    14    17    2
    22    15    16    1
    23    16    17    1
    24    16    18    1
    25    16    22    1
    26    18    19    1
    27    19    20    1
    28    20    21    1
    29    21    22    1
    30    23    24    1
    31    23    88    1
    32    23    89    1
    33    24    25    1
    34    24    26    1
    35    24    90    1
    36    25    91    1
    37    25    92    1
    38    25    93    1
    39    26    94    1
    40    26    95    1
    41    26    96    1
    42    27    28   ar
    43    28    29   ar
    44    29    30   ar
    45    29    31    1
    46    30    33    1
    47    31    32    1
    48    32    33    1
    49    32    35    1
    50    34    97    1
    51    34    98    1
    52    34    99    1
    53    35    61    1
    54    36    37    1
    55    36    60    1
    56    37    38    1
    57    38    39    1
    58    39    40    1
    59    40    41    1
    60    41    42    1
    61    45   100    1
    62    47   101    1
    63    47   102    1
    64    47   103    1
    65    48   104    1
    66    49   105    1
    67    49   106    1
    68    49   107    1
    69    50   108    1
    70    51    59    1
    71    52   109    1
    72    52   110    1
    73    52   111    1
    74    53    54    1
    75    54    55    2
    76    54    56    1
    77    56   112    1
    78    56   113    1
    79    56   114    1
    80    57   115    1
    81    57   116    1
    82    57   117    1
    83    58   118    1
    84    58   119    1
    85    58   120    1
    86    59   121    1
    87    59   122    1
    88    59   123    1
    89    60    61    2
    90     1    47    1
    91     1    62    1
    92     2    63    1
    93     3    64    1
    94     4    65    1
    95     5     6    1
    96     7     8    2
    97     9    78    1
    98    15    79    1
    99    18    80    1
   100    18    81    1
   101    19    82    1
   102    19    83    1
   103    20    23    1
   104    21    84    1
   105    21    85    1
   106    22    86    1
   107    22    87    1
   108    27    45    1
   109    28    34    1
   110    32    58    1
   111    33    46    2
   112    36    51    1
   113    36    66    1
   114    37    52    1
   115    37    67    1
   116    38    53    1
   117    38    68    1
   118    42    48    1
   119    42    72    1
   120    43    44    2
   121    60    73    1
   122    61    74    1
   123    39    69    1
   124    39    57    1
   125    40    70    1
   126    40    50    1
   127    41    71    1
   128    41    49    1
