@<TRIPOS>MOLECULE
*****
 123 128 0 0 0
SMALL
GASTEIGER

@<TRIPOS>ATOM
     1 C         0.391211   2.768507   4.711059 C.3        1 UNL1     0.0009
     2 C         0.428168   4.441633   5.508756 C.2        1 UNL1     -0.0787
     3 C         1.168621   5.528032   6.114985 C.2        1 UNL1     -0.0649
     4 C         0.583219   7.037589   6.609858 C.2        1 UNL1     -0.0542
     5 C         0.935897   8.372567   6.926918 C.2        1 UNL1     0.0115
     6 C         2.132586   9.32686   7.192596 C.3        1 UNL1     -0.0348
     7 C         -0.209948   9.49679   6.939183 C.2        1 UNL1     0.2441
     8 O         -0.708334   9.927742   7.969919 O.2        1 UNL1     -0.2702
     9 N         -0.417547   10.139656   5.70639 N.am        1 UNL1     -0.2772
     10 C         -1.334573   9.445358   4.951184 C.2        1 UNL1     0.1049
     11 C         -0.865275   8.42032   4.263231 C.2        1 UNL1     0.0801
     12 C         -3.597967   8.385817   5.059595 C.ar        1 UNL1     0.0753
     13 C         -2.991109   7.216536   4.500029 C.ar        1 UNL1     0.0305
     14 C         -1.632748   7.242292   3.962214 C.2        1 UNL1     0.0924
     15 N         0.40415   8.059766   4.008107 N.pl3        1 UNL1     -0.3170
     16 C         0.371097   6.968597   3.070818 C.3        1 UNL1     0.1275
     17 N         -0.954246   6.292671   3.32442 N.2        1 UNL1     -0.2557
     18 C         0.276768   7.575037   1.674024 C.3        1 UNL1     0.0016
     19 C         1.440744   8.533835   1.48049 C.3        1 UNL1     0.0026
     20 N         2.686073   7.797804   1.649136 N.3        1 UNL1     -0.3018
     21 C         2.841466   7.126606   2.94131 C.3        1 UNL1     0.0026
     22 C         1.664208   6.165075   3.112823 C.3        1 UNL1     0.0016
     23 C         3.845478   8.539556   1.195014 C.3        1 UNL1     0.0012
     24 C         3.84351   8.656947   -0.337295 C.3        1 UNL1     -0.0339
     25 C         5.271911   8.773405   -0.894218 C.3        1 UNL1     -0.0615
     26 C         3.099194   7.48261   -0.948611 C.3        1 UNL1     -0.0615
     27 C         -4.932296   8.385541   5.459201 C.ar        1 UNL1     0.1347
     28 C         -5.767426   7.292341   5.3125 C.ar        1 UNL1     0.0342
     29 C         -5.135308   6.137514   4.804598 C.ar        1 UNL1     0.1435
     30 C         -3.7903   6.112266   4.433739 C.ar        1 UNL1     0.0774
     31 O         -5.838783   5.024932   4.500804 O.3        1 UNL1     -0.4436
     32 C         -4.988122   4.290654   3.607448 C.3        1 UNL1     0.3143
     33 C         -3.58513   4.780141   3.904479 C.2        1 UNL1     0.2504
     34 C         -7.261143   7.294798   5.482514 C.3        1 UNL1     -0.0327
     35 O         -5.042214   2.914372   4.002639 O.2        1 UNL1     -0.4528
     36 C         -4.492251   0.899228   0.833282 C.3        1 UNL1     0.0854
     37 C         -3.280733   0.940094   -0.175717 C.3        1 UNL1     0.0236
     38 C         -2.571732   -0.47419   -0.438131 C.3        1 UNL1     0.1131
     39 C         -2.114884   -1.362959   0.788103 C.3        1 UNL1     0.0200
     40 C         -1.347007   -0.667934   2.095675 C.3        1 UNL1     0.0661
     41 C         -0.018502   0.384448   2.023723 C.3        1 UNL1     0.0091
     42 C         0.453667   1.781219   3.115276 C.3        1 UNL1     0.0661
     43 C         -2.784452   9.625608   5.117657 C.2        1 UNL1     0.2131
     44 O         -3.264004   10.74247   5.19106 O.2        1 UNL1     -0.2851
     45 O         -5.433118   9.550708   6.036264 O.3        1 UNL1     -0.5056
     46 O         -2.535836   4.194113   3.758169 O.2        1 UNL1     -0.2836
     47 C         0.5977   1.658451   5.776478 C.3        1 UNL1     -0.0566
     48 O         1.867948   1.353476   3.241614 O.3        1 UNL1     -0.3909
     49 C         0.14906   0.862092   0.598496 C.3        1 UNL1     -0.0577
     50 O         -2.289364   -0.192868   3.035887 O.3        1 UNL1     -0.3910
     51 O         -4.691706   -0.322821   1.507258 O.3        1 UNL1     -0.3753
     52 C         -2.465259   2.268514   -0.052225 C.3        1 UNL1     -0.0564
     53 O         -1.673129   -0.481666   -1.640122 O.3        1 UNL1     -0.4608
     54 C         -0.65542   -1.371014   -1.866521 C.2        1 UNL1     0.3042
     55 O         -0.737854   -2.596094   -1.945405 O.2        1 UNL1     -0.2512
     56 C         0.677475   -0.715363   -2.090635 C.3        1 UNL1     0.0332
     57 C         -3.282734   -2.415383   1.08256 C.3        1 UNL1     -0.0567
     58 C         -5.376299   4.727683   2.175717 C.3        1 UNL1     0.0210
     59 C         -6.035399   -0.567129   1.92038 C.3        1 UNL1     0.0372
     60 C         -4.482035   1.965425   1.871685 C.2        1 UNL1     -0.0208
     61 C         -4.714311   1.897017   3.183215 C.2        1 UNL1     0.0882
     62 H         -0.691955   2.87701   4.578054 H        1 UNL1     0.0365
     63 H         -0.639496   4.663781   5.565436 H        1 UNL1     0.0576
     64 H         2.260008   5.522352   6.159161 H        1 UNL1     0.0615
     65 H         -0.502705   6.910172   6.605521 H        1 UNL1     0.0622
     66 H         -5.376798   1.093612   0.210517 H        1 UNL1     0.0645
     67 H         -3.75332   1.133628   -1.154372 H        1 UNL1     0.0362
     68 H         -3.411422   -1.018697   -0.896339 H        1 UNL1     0.0741
     69 H         -1.387526   -2.085384   0.442471 H        1 UNL1     0.0359
     70 H         -0.917436   -1.572368   2.567404 H        1 UNL1     0.0600
     71 H         0.810773   -0.345156   2.107017 H        1 UNL1     0.0348
     72 H         -0.248383   1.165976   3.696582 H        1 UNL1     0.0602
     73 H         -4.373409   2.910702   1.400621 H        1 UNL1     0.0628
     74 H         -4.779517   0.967805   3.750271 H        1 UNL1     0.1022
     75 H         1.793353   10.23704   7.743528 H        1 UNL1     0.0279
     76 H         2.923735   8.945812   7.834432 H        1 UNL1     0.0279
     77 H         2.53633   9.769623   6.270288 H        1 UNL1     0.0279
     78 H         0.454765   10.164527   5.182434 H        1 UNL1     0.1553
     79 H         1.187202   8.68177   4.091016 H        1 UNL1     0.1484
     80 H         0.295103   6.767845   0.931816 H        1 UNL1     0.0317
     81 H         -0.673642   8.102654   1.539883 H        1 UNL1     0.0317
     82 H         1.386871   9.385039   2.175084 H        1 UNL1     0.0428
     83 H         1.353093   8.956214   0.479009 H        1 UNL1     0.0428
     84 H         3.747185   6.516343   3.012484 H        1 UNL1     0.0428
     85 H         2.938757   7.845705   3.766385 H        1 UNL1     0.0428
     86 H         1.879782   5.598722   3.999819 H        1 UNL1     0.0317
     87 H         1.679496   5.408593   2.318721 H        1 UNL1     0.0317
     88 H         3.794055   9.54927   1.622949 H        1 UNL1     0.0429
     89 H         4.776668   8.084267   1.556082 H        1 UNL1     0.0429
     90 H         3.281227   9.552161   -0.628228 H        1 UNL1     0.0308
     91 H         5.938165   8.035232   -0.43781 H        1 UNL1     0.0233
     92 H         5.276032   8.638379   -1.978358 H        1 UNL1     0.0233
     93 H         5.713962   9.759535   -0.707206 H        1 UNL1     0.0233
     94 H         2.078538   7.435503   -0.553796 H        1 UNL1     0.0233
     95 H         3.035683   7.604409   -2.033551 H        1 UNL1     0.0233
     96 H         3.598962   6.53513   -0.728426 H        1 UNL1     0.0233
     97 H         -7.705266   6.345818   5.197169 H        1 UNL1     0.0280
     98 H         -7.558644   7.464283   6.525598 H        1 UNL1     0.0280
     99 H         -7.702756   8.085751   4.854449 H        1 UNL1     0.0280
     100 H         -6.249921   9.846892   5.674696 H        1 UNL1     0.2922
     101 H         1.663388   1.496018   5.936417 H        1 UNL1     0.0236
     102 H         0.074149   0.733132   5.538439 H        1 UNL1     0.0236
     103 H         0.208454   1.955343   6.764676 H        1 UNL1     0.0236
     104 H         1.877058   0.37798   3.29902 H        1 UNL1     0.2098
     105 H         -0.574427   1.611777   0.288092 H        1 UNL1     0.0234
     106 H         1.158677   1.182095   0.341205 H        1 UNL1     0.0234
     107 H         0.0   0.0   0.0 H        1 UNL1     0.0234
     108 H         -1.812496   0.395115   3.65285 H        1 UNL1     0.2098
     109 H         -2.062455   2.416828   0.959439 H        1 UNL1     0.0234
     110 H         -1.654257   2.345335   -0.784426 H        1 UNL1     0.0234
     111 H         -3.091035   3.147881   -0.254867 H        1 UNL1     0.0234
     112 H         1.461509   -1.28159   -1.578753 H        1 UNL1     0.0342
     113 H         0.905289   -0.602076   -3.14946 H        1 UNL1     0.0342
     114 H         0.644232   0.289654   -1.647915 H        1 UNL1     0.0342
     115 H         -2.887346   -3.37101   1.453547 H        1 UNL1     0.0234
     116 H         -4.02469   -2.065187   1.802916 H        1 UNL1     0.0234
     117 H         -3.817824   -2.744081   0.175047 H        1 UNL1     0.0234
     118 H         -5.958085   3.951322   1.648654 H        1 UNL1     0.0309
     119 H         -5.931663   5.670611   2.150061 H        1 UNL1     0.0309
     120 H         -4.503796   4.871961   1.529166 H        1 UNL1     0.0309
     121 H         -6.636301   -0.706582   1.022145 H        1 UNL1     0.0524
     122 H         -6.126637   -1.483856   2.526454 H        1 UNL1     0.0524
     123 H         -6.41072   0.274576   2.495498 H        1 UNL1     0.0524
@<TRIPOS>BOND
     1     1     2    1
     2     1    42    1
     3     2     3    2
     4     3     4    1
     5     4     5    2
     6     5     7    1
     7     6    75    1
     8     6    76    1
     9     6    77    1
    10     7     9   am
    11     9    10    1
    12    10    11    2
    13    10    43    1
    14    11    14    1
    15    11    15    1
    16    12    13   ar
    17    12    27   ar
    18    12    43    1
    19    13    14    1
    20    13    30   ar
    21    14    17    2
    22    15    16    1
    23    16    17    1
    24    16    18    1
    25    16    22    1
    26    18    19    1
    27    19    20    1
    28    20    21    1
    29    21    22    1
    30    23    24    1
    31    23    88    1
    32    23    89    1
    33    24    25    1
    34    24    26    1
    35    24    90    1
    36    25    91    1
    37    25    92    1
    38    25    93    1
    39    26    94    1
    40    26    95    1
    41    26    96    1
    42    27    28   ar
    43    28    29   ar
    44    29    30   ar
    45    29    31    1
    46    30    33    1
    47    31    32    1
    48    32    33    1
    49    32    35    1
    50    34    97    1
    51    34    98    1
    52    34    99    1
    53    35    61    1
    54    36    37    1
    55    36    60    1
    56    37    38    1
    57    38    39    1
    58    39    40    1
    59    40    41    1
    60    41    42    1
    61    45   100    1
    62    47   101    1
    63    47   102    1
    64    47   103    1
    65    48   104    1
    66    49   105    1
    67    49   106    1
    68    49   107    1
    69    50   108    1
    70    51    59    1
    71    52   109    1
    72    52   110    1
    73    52   111    1
    74    53    54    1
    75    54    55    2
    76    54    56    1
    77    56   112    1
    78    56   113    1
    79    56   114    1
    80    57   115    1
    81    57   116    1
    82    57   117    1
    83    58   118    1
    84    58   119    1
    85    58   120    1
    86    59   121    1
    87    59   122    1
    88    59   123    1
    89    60    61    2
    90     1    47    1
    91     1    62    1
    92     2    63    1
    93     3    64    1
    94     4    65    1
    95     5     6    1
    96     7     8    2
    97     9    78    1
    98    15    79    1
    99    18    80    1
   100    18    81    1
   101    19    82    1
   102    19    83    1
   103    20    23    1
   104    21    84    1
   105    21    85    1
   106    22    86    1
   107    22    87    1
   108    27    45    1
   109    28    34    1
   110    32    58    1
   111    33    46    2
   112    36    51    1
   113    36    66    1
   114    37    52    1
   115    37    67    1
   116    38    53    1
   117    38    68    1
   118    42    48    1
   119    42    72    1
   120    43    44    2
   121    60    73    1
   122    61    74    1
   123    39    69    1
   124    39    57    1
   125    40    70    1
   126    40    50    1
   127    41    71    1
   128    41    49    1
