@<TRIPOS>MOLECULE
*****
 123 128 0 0 0
SMALL
GASTEIGER

@<TRIPOS>ATOM
     1 C         3.787427   -2.246794   -2.330613 C.3        1 UNL1     0.0009
     2 C         4.120599   -2.846039   -4.053093 C.2        1 UNL1     -0.0787
     3 C         4.381469   -3.92909   -4.977752 C.2        1 UNL1     -0.0649
     4 C         4.500327   -3.851132   -6.664806 C.2        1 UNL1     -0.0542
     5 C         4.4399   -4.595624   -7.868616 C.2        1 UNL1     0.0115
     6 C         4.380852   -6.03267   -8.455757 C.3        1 UNL1     -0.0348
     7 C         4.225104   -3.81506   -9.254824 C.2        1 UNL1     0.2441
     8 O         5.135354   -3.59283   -10.041326 O.2        1 UNL1     -0.2702
     9 N         2.881587   -3.634006   -9.626756 N.am        1 UNL1     -0.2772
     10 C         2.385413   -2.47129   -9.083411 C.2        1 UNL1     0.1049
     11 C         1.961341   -2.546882   -7.834943 C.2        1 UNL1     0.0801
     12 C         2.892822   -0.037776   -8.804337 C.ar        1 UNL1     0.0753
     13 C         2.622145   -0.221398   -7.410915 C.ar        1 UNL1     0.0305
     14 C         2.020027   -1.452539   -6.904166 C.2        1 UNL1     0.0924
     15 N         1.736978   -3.623741   -7.062568 N.pl3        1 UNL1     -0.3170
     16 C         1.118103   -3.170209   -5.845376 C.3        1 UNL1     0.1275
     17 N         1.612915   -1.754684   -5.674574 N.2        1 UNL1     -0.2557
     18 C         -0.380502   -3.065719   -6.111767 C.3        1 UNL1     0.0016
     19 C         -0.881609   -4.413172   -6.606592 C.3        1 UNL1     0.0026
     20 N         -0.598678   -5.418826   -5.591882 N.3        1 UNL1     -0.3018
     21 C         0.812393   -5.550071   -5.223071 C.3        1 UNL1     0.0026
     22 C         1.29373   -4.186352   -4.724592 C.3        1 UNL1     0.0016
     23 C         -1.294491   -6.66834   -5.826835 C.3        1 UNL1     0.0012
     24 C         -0.473225   -7.575649   -6.756388 C.3        1 UNL1     -0.0339
     25 C         0.190205   -8.724274   -5.978842 C.3        1 UNL1     -0.0615
     26 C         -1.348749   -8.095829   -7.883175 C.3        1 UNL1     -0.0615
     27 C         3.353721   1.181421   -9.295507 C.ar        1 UNL1     0.1347
     28 C         3.543024   2.296818   -8.4992 C.ar        1 UNL1     0.0342
     29 C         3.31698   2.078445   -7.123562 C.ar        1 UNL1     0.1435
     30 C         2.889811   0.852362   -6.612222 C.ar        1 UNL1     0.0774
     31 O         3.352395   3.094176   -6.233595 O.3        1 UNL1     -0.4436
     32 C         2.633303   2.601991   -5.092747 C.3        1 UNL1     0.3143
     33 C         2.713322   1.092249   -5.195158 C.2        1 UNL1     0.2504
     34 C         3.790881   3.696927   -8.987424 C.3        1 UNL1     -0.0327
     35 O         3.374241   2.980869   -3.92625 O.2        1 UNL1     -0.4528
     36 C         0.809911   3.423322   -1.162822 C.3        1 UNL1     0.0854
     37 C         -0.242097   2.38913   -0.604927 C.3        1 UNL1     0.0236
     38 C         -0.168535   2.137012   0.977087 C.3        1 UNL1     0.1131
     39 C         1.218306   1.787046   1.65271 C.3        1 UNL1     0.0200
     40 C         2.255294   0.694429   0.936273 C.3        1 UNL1     0.0661
     41 C         1.837828   -0.8513   0.375868 C.3        1 UNL1     0.0091
     42 C         2.50133   -1.827259   -1.02865 C.3        1 UNL1     0.0661
     43 C         2.581273   -1.161401   -9.722304 C.2        1 UNL1     0.2131
     44 O         2.389605   -1.021451   -10.91663 O.2        1 UNL1     -0.2851
     45 O         3.63633   1.262895   -10.657466 O.3        1 UNL1     -0.5056
     46 O         2.664797   0.272984   -4.305043 O.2        1 UNL1     -0.2836
     47 C         5.090774   -2.276487   -1.487768 C.3        1 UNL1     -0.0566
     48 O         2.653968   -3.073185   -0.239038 O.3        1 UNL1     -0.3909
     49 C         0.330375   -0.957147   0.313594 C.3        1 UNL1     -0.0577
     50 O         3.091966   1.339198   -0.002863 O.3        1 UNL1     -0.3910
     51 O         1.787876   3.862004   -0.247086 O.3        1 UNL1     -0.3753
     52 C         -0.513654   1.230748   -1.6195 C.3        1 UNL1     -0.0564
     53 O         -1.376363   1.439275   1.530838 O.3        1 UNL1     -0.4608
     54 C         -1.421667   0.743966   2.710848 C.2        1 UNL1     0.3042
     55 O         -1.258242   1.188503   3.846417 O.2        1 UNL1     -0.2512
     56 C         -1.768005   -0.707842   2.540502 C.3        1 UNL1     0.0332
     57 C         1.841212   3.150838   2.209697 C.3        1 UNL1     -0.0567
     58 C         1.161578   3.037549   -5.282075 C.3        1 UNL1     0.0210
     59 C         2.421912   5.093045   -0.591183 C.3        1 UNL1     0.0372
     60 C         1.534041   2.985277   -2.387123 C.2        1 UNL1     -0.0208
     61 C         2.829428   3.054936   -2.696746 C.2        1 UNL1     0.0882
     62 H         3.692389   -1.22757   -2.724138 H        1 UNL1     0.0365
     63 H         4.178098   -1.897501   -4.591089 H        1 UNL1     0.0576
     64 H         4.363737   -4.972895   -4.656403 H        1 UNL1     0.0615
     65 H         4.59067   -2.781085   -6.870523 H        1 UNL1     0.0622
     66 H         0.209162   4.293357   -1.463131 H        1 UNL1     0.0645
     67 H         -1.209079   2.91322   -0.698919 H        1 UNL1     0.0362
     68 H         -0.421581   3.14625   1.336153 H        1 UNL1     0.0741
     69 H         1.031202   1.337881   2.618967 H        1 UNL1     0.0359
     70 H         2.920294   0.472799   1.792845 H        1 UNL1     0.0600
     71 H         2.060359   -1.45131   1.279983 H        1 UNL1     0.0348
     72 H         3.261068   -1.064748   -0.803503 H        1 UNL1     0.0602
     73 H         0.828619   2.682908   -3.120744 H        1 UNL1     0.0628
     74 H         3.620775   3.29905   -1.987229 H        1 UNL1     0.1022
     75 H         5.155898   -6.681984   -7.9817 H        1 UNL1     0.0279
     76 H         3.4654   -6.59234   -8.277472 H        1 UNL1     0.0279
     77 H         4.681511   -6.072798   -9.512968 H        1 UNL1     0.0279
     78 H         2.320581   -4.403707   -9.267718 H        1 UNL1     0.1553
     79 H         1.611296   -4.551584   -7.423464 H        1 UNL1     0.1484
     80 H         -0.887834   -2.764629   -5.187253 H        1 UNL1     0.0317
     81 H         -0.592825   -2.288134   -6.853341 H        1 UNL1     0.0317
     82 H         -0.429584   -4.686333   -7.571459 H        1 UNL1     0.0428
     83 H         -1.951731   -4.315765   -6.792068 H        1 UNL1     0.0428
     84 H         0.987967   -6.254162   -4.403778 H        1 UNL1     0.0428
     85 H         1.415914   -5.947832   -6.050637 H        1 UNL1     0.0428
     86 H         2.28356   -4.351122   -4.341087 H        1 UNL1     0.0317
     87 H         0.723389   -3.889569   -3.835926 H        1 UNL1     0.0317
     88 H         -1.41824   -7.177038   -4.861844 H        1 UNL1     0.0429
     89 H         -2.30043   -6.494843   -6.230269 H        1 UNL1     0.0429
     90 H         0.311921   -6.980432   -7.237508 H        1 UNL1     0.0308
     91 H         0.418972   -9.569031   -6.635464 H        1 UNL1     0.0233
     92 H         1.110435   -8.384338   -5.497977 H        1 UNL1     0.0233
     93 H         -0.449987   -9.109625   -5.176039 H        1 UNL1     0.0233
     94 H         -1.277802   -9.187229   -7.943564 H        1 UNL1     0.0233
     95 H         -2.394123   -7.835881   -7.694542 H        1 UNL1     0.0233
     96 H         -1.049144   -7.676166   -8.847586 H        1 UNL1     0.0233
     97 H         4.777766   3.806412   -9.427086 H        1 UNL1     0.0280
     98 H         3.079196   3.994928   -9.76842 H        1 UNL1     0.0280
     99 H         3.70815   4.401914   -8.144071 H        1 UNL1     0.0280
     100 H         2.902482   1.501797   -11.195997 H        1 UNL1     0.2922
     101 H         5.183651   -3.240555   -0.988165 H        1 UNL1     0.0236
     102 H         5.168229   -1.444436   -0.788716 H        1 UNL1     0.0236
     103 H         5.992934   -2.199482   -2.117348 H        1 UNL1     0.0236
     104 H         3.544926   -3.060796   0.162224 H        1 UNL1     0.2098
     105 H         -0.039385   -1.687579   -0.401638 H        1 UNL1     0.0234
     106 H         -0.156802   -1.093584   1.27898 H        1 UNL1     0.0234
     107 H         -0.0   0.0   0.0 H        1 UNL1     0.0234
     108 H         3.452848   0.648865   -0.591907 H        1 UNL1     0.2098
     109 H         0.398371   0.667408   -1.861509 H        1 UNL1     0.0234
     110 H         -1.293576   0.538736   -1.283963 H        1 UNL1     0.0234
     111 H         -0.890523   1.61216   -2.577853 H        1 UNL1     0.0234
     112 H         -0.885568   -1.264797   2.211184 H        1 UNL1     0.0342
     113 H         -2.185241   -1.138718   3.449405 H        1 UNL1     0.0342
     114 H         -2.53034   -0.788646   1.753431 H        1 UNL1     0.0342
     115 H         1.130911   3.693196   2.848844 H        1 UNL1     0.0234
     116 H         2.761774   3.017532   2.781399 H        1 UNL1     0.0234
     117 H         2.034563   3.899894   1.422632 H        1 UNL1     0.0234
     118 H         0.45281   2.268778   -4.927611 H        1 UNL1     0.0309
     119 H         0.929487   3.990228   -4.795516 H        1 UNL1     0.0309
     120 H         0.892427   3.162169   -6.336653 H        1 UNL1     0.0309
     121 H         3.003041   4.922661   -1.497061 H        1 UNL1     0.0524
     122 H         1.693801   5.892011   -0.809232 H        1 UNL1     0.0524
     123 H         3.072232   5.419221   0.215531 H        1 UNL1     0.0524
@<TRIPOS>BOND
     1     1     2    1
     2     1    42    1
     3     2     3    2
     4     3     4    1
     5     4     5    2
     6     5     7    1
     7     6    75    1
     8     6    76    1
     9     6    77    1
    10     7     9   am
    11     9    10    1
    12    10    11    2
    13    10    43    1
    14    11    14    1
    15    11    15    1
    16    12    13   ar
    17    12    27   ar
    18    12    43    1
    19    13    14    1
    20    13    30   ar
    21    14    17    2
    22    15    16    1
    23    16    17    1
    24    16    18    1
    25    16    22    1
    26    18    19    1
    27    19    20    1
    28    20    21    1
    29    21    22    1
    30    23    24    1
    31    23    88    1
    32    23    89    1
    33    24    25    1
    34    24    26    1
    35    24    90    1
    36    25    91    1
    37    25    92    1
    38    25    93    1
    39    26    94    1
    40    26    95    1
    41    26    96    1
    42    27    28   ar
    43    28    29   ar
    44    29    30   ar
    45    29    31    1
    46    30    33    1
    47    31    32    1
    48    32    33    1
    49    32    35    1
    50    34    97    1
    51    34    98    1
    52    34    99    1
    53    35    61    1
    54    36    37    1
    55    36    60    1
    56    37    38    1
    57    38    39    1
    58    39    40    1
    59    40    41    1
    60    41    42    1
    61    45   100    1
    62    47   101    1
    63    47   102    1
    64    47   103    1
    65    48   104    1
    66    49   105    1
    67    49   106    1
    68    49   107    1
    69    50   108    1
    70    51    59    1
    71    52   109    1
    72    52   110    1
    73    52   111    1
    74    53    54    1
    75    54    55    2
    76    54    56    1
    77    56   112    1
    78    56   113    1
    79    56   114    1
    80    57   115    1
    81    57   116    1
    82    57   117    1
    83    58   118    1
    84    58   119    1
    85    58   120    1
    86    59   121    1
    87    59   122    1
    88    59   123    1
    89    60    61    2
    90     1    47    1
    91     1    62    1
    92     2    63    1
    93     3    64    1
    94     4    65    1
    95     5     6    1
    96     7     8    2
    97     9    78    1
    98    15    79    1
    99    18    80    1
   100    18    81    1
   101    19    82    1
   102    19    83    1
   103    20    23    1
   104    21    84    1
   105    21    85    1
   106    22    86    1
   107    22    87    1
   108    27    45    1
   109    28    34    1
   110    32    58    1
   111    33    46    2
   112    36    51    1
   113    36    66    1
   114    37    52    1
   115    37    67    1
   116    38    53    1
   117    38    68    1
   118    42    48    1
   119    42    72    1
   120    43    44    2
   121    60    73    1
   122    61    74    1
   123    39    69    1
   124    39    57    1
   125    40    70    1
   126    40    50    1
   127    41    71    1
   128    41    49    1
