@<TRIPOS>MOLECULE
*****
 123 128 0 0 0
SMALL
GASTEIGER

@<TRIPOS>ATOM
     1 C         5.167645   1.746876   0.493054 C.3        1 UNL1     0.0009
     2 C         6.604826   2.55272   -0.356748 C.2        1 UNL1     -0.0787
     3 C         7.886828   2.454269   -1.022198 C.2        1 UNL1     -0.0649
     4 C         8.764901   3.689301   -1.777209 C.2        1 UNL1     -0.0542
     5 C         9.785257   3.981857   -2.715486 C.2        1 UNL1     0.0115
     6 C         10.913437   3.356263   -3.581029 C.3        1 UNL1     -0.0348
     7 C         9.881275   5.465259   -3.321529 C.2        1 UNL1     0.2441
     8 O         10.705364   6.286498   -2.943416 O.2        1 UNL1     -0.2702
     9 N         9.131407   5.672843   -4.492324 N.am        1 UNL1     -0.2772
     10 C         7.848756   6.059893   -4.178761 C.2        1 UNL1     0.1049
     11 C         7.002551   5.088698   -3.887316 C.2        1 UNL1     0.0801
     12 C         6.550606   7.666594   -2.767857 C.ar        1 UNL1     0.0753
     13 C         5.791035   6.53882   -2.320883 C.ar        1 UNL1     0.0305
     14 C         5.90765   5.233268   -2.966627 C.2        1 UNL1     0.0924
     15 N         7.124731   3.759723   -4.046769 N.pl3        1 UNL1     -0.3170
     16 C         5.854581   3.160918   -3.733073 C.3        1 UNL1     0.1275
     17 N         5.218291   4.116092   -2.753022 N.2        1 UNL1     -0.2557
     18 C         5.002055   3.220669   -4.99693 C.3        1 UNL1     0.0016
     19 C         5.756959   2.536639   -6.125562 C.3        1 UNL1     0.0026
     20 N         6.026513   1.158326   -5.740046 N.3        1 UNL1     -0.3018
     21 C         6.789516   0.99729   -4.500586 C.3        1 UNL1     0.0026
     22 C         6.010752   1.68776   -3.379572 C.3        1 UNL1     0.0016
     23 C         6.470989   0.338956   -6.849874 C.3        1 UNL1     0.0012
     24 C         5.315688   0.090186   -7.832295 C.3        1 UNL1     -0.0339
     25 C         5.341882   1.093699   -8.996912 C.3        1 UNL1     -0.0615
     26 C         5.354684   -1.344388   -8.329544 C.3        1 UNL1     -0.0615
     27 C         6.346274   8.934203   -2.227916 C.ar        1 UNL1     0.1347
     28 C         5.387085   9.203814   -1.268065 C.ar        1 UNL1     0.0342
     29 C         4.685005   8.069481   -0.808132 C.ar        1 UNL1     0.1435
     30 C         4.904106   6.787524   -1.313899 C.ar        1 UNL1     0.0774
     31 O         3.643852   8.183173   0.045145 O.3        1 UNL1     -0.4436
     32 C         2.921764   6.950655   -0.097546 C.3        1 UNL1     0.3143
     33 C         3.934828   5.95734   -0.629748 C.2        1 UNL1     0.2504
     34 C         4.940635   10.56995   -0.827095 C.3        1 UNL1     -0.0327
     35 O         2.560661   6.513702   1.218481 O.2        1 UNL1     -0.4528
     36 C         -0.682989   4.5828   0.82043 C.3        1 UNL1     0.0854
     37 C         -0.98854   3.322586   -0.077357 C.3        1 UNL1     0.0236
     38 C         -1.589733   2.061531   0.710076 C.3        1 UNL1     0.1131
     39 C         -0.864468   1.52996   2.011496 C.3        1 UNL1     0.0200
     40 C         0.796662   1.383804   2.053006 C.3        1 UNL1     0.0661
     41 C         1.756024   0.614964   0.884194 C.3        1 UNL1     0.0091
     42 C         3.463872   0.977066   0.320688 C.3        1 UNL1     0.0661
     43 C         7.500832   7.458871   -3.888652 C.2        1 UNL1     0.2131
     44 O         7.901205   8.35701   -4.606834 O.2        1 UNL1     -0.2851
     45 O         7.15902   9.969148   -2.685923 O.3        1 UNL1     -0.5056
     46 O         3.950352   4.753762   -0.49931 O.2        1 UNL1     -0.2836
     47 C         5.563522   1.316847   1.931226 C.3        1 UNL1     -0.0566
     48 O         3.911906   -0.434224   0.402176 O.3        1 UNL1     -0.3909
     49 C         0.922036   0.383027   -0.356033 C.3        1 UNL1     -0.0577
     50 O         1.397211   2.601338   2.446293 O.3        1 UNL1     -0.3910
     51 O         -0.807463   4.392778   2.211771 O.3        1 UNL1     -0.3753
     52 C         0.05612   3.162062   -1.229688 C.3        1 UNL1     -0.0564
     53 O         -2.192507   1.02302   -0.190192 O.3        1 UNL1     -0.4608
     54 C         -2.415365   -0.286985   0.144702 C.2        1 UNL1     0.3042
     55 O         -1.843325   -1.280041   -0.303012 O.2        1 UNL1     -0.2512
     56 C         -3.445241   -0.465038   1.223759 C.3        1 UNL1     0.0332
     57 C         -1.58554   2.198861   3.272766 C.3        1 UNL1     -0.0567
     58 C         1.846904   7.196439   -1.181887 C.3        1 UNL1     0.0210
     59 C         -1.151324   5.565335   2.948476 C.3        1 UNL1     0.0372
     60 C         0.646288   5.211466   0.59029 C.2        1 UNL1     -0.0208
     61 C         1.559185   5.646125   1.460024 C.2        1 UNL1     0.0882
     62 H         4.692063   2.731197   0.580488 H        1 UNL1     0.0365
     63 H         6.338938   3.606587   -0.251211 H        1 UNL1     0.0576
     64 H         8.34418   1.487314   -1.243412 H        1 UNL1     0.0615
     65 H         8.278074   4.604778   -1.430246 H        1 UNL1     0.0622
     66 H         -1.427298   5.329685   0.510247 H        1 UNL1     0.0645
     67 H         -1.853839   3.632436   -0.688758 H        1 UNL1     0.0362
     68 H         -2.536723   2.498655   1.061723 H        1 UNL1     0.0741
     69 H         -1.196403   0.518929   2.206544 H        1 UNL1     0.0359
     70 H         0.908   0.723189   2.934058 H        1 UNL1     0.0600
     71 H         1.799139   -0.406335   1.310864 H        1 UNL1     0.0348
     72 H         3.35795   1.46504   1.300472 H        1 UNL1     0.0602
     73 H         0.764485   5.408957   -0.446182 H        1 UNL1     0.0628
     74 H         1.541325   5.435174   2.529798 H        1 UNL1     0.1022
     75 H         10.95748   2.250926   -3.428306 H        1 UNL1     0.0279
     76 H         10.800073   3.439389   -4.659597 H        1 UNL1     0.0279
     77 H         11.91855   3.660511   -3.254103 H        1 UNL1     0.0279
     78 H         9.069205   4.80306   -5.017382 H        1 UNL1     0.1553
     79 H         7.789981   3.331658   -4.664131 H        1 UNL1     0.1484
     80 H         4.040552   2.730033   -4.803141 H        1 UNL1     0.0317
     81 H         4.775885   4.257579   -5.2677 H        1 UNL1     0.0317
     82 H         6.687871   3.067668   -6.373199 H        1 UNL1     0.0428
     83 H         5.132024   2.592253   -7.017421 H        1 UNL1     0.0428
     84 H         6.909387   -0.04579   -4.191674 H        1 UNL1     0.0428
     85 H         7.819766   1.364975   -4.604077 H        1 UNL1     0.0428
     86 H         6.526884   1.436961   -2.471444 H        1 UNL1     0.0317
     87 H         5.031105   1.210447   -3.254827 H        1 UNL1     0.0317
     88 H         7.267366   0.880604   -7.376842 H        1 UNL1     0.0429
     89 H         6.903162   -0.60707   -6.499109 H        1 UNL1     0.0429
     90 H         4.362749   0.197098   -7.300609 H        1 UNL1     0.0308
     91 H         6.292091   1.050771   -9.537618 H        1 UNL1     0.0233
     92 H         4.523531   0.898145   -9.693811 H        1 UNL1     0.0233
     93 H         5.214749   2.129252   -8.658825 H        1 UNL1     0.0233
     94 H         4.658541   -1.473487   -9.165339 H        1 UNL1     0.0233
     95 H         6.359045   -1.588933   -8.686501 H        1 UNL1     0.0233
     96 H         5.079883   -2.048339   -7.539034 H        1 UNL1     0.0233
     97 H         4.147115   10.520261   -0.087441 H        1 UNL1     0.0280
     98 H         5.753491   11.139571   -0.357997 H        1 UNL1     0.0280
     99 H         4.567352   11.134853   -1.696946 H        1 UNL1     0.0280
     100 H         6.692329   10.719753   -3.009054 H        1 UNL1     0.2922
     101 H         4.700441   0.883387   2.436061 H        1 UNL1     0.0236
     102 H         6.014469   2.121874   2.510503 H        1 UNL1     0.0236
     103 H         6.31948   0.513903   1.930077 H        1 UNL1     0.0236
     104 H         4.331203   -0.560598   1.275784 H        1 UNL1     0.2098
     105 H         0.709762   1.282101   -0.929109 H        1 UNL1     0.0234
     106 H         1.291334   -0.404891   -1.012335 H        1 UNL1     0.0234
     107 H         0.0   -0.0   0.0 H        1 UNL1     0.0234
     108 H         1.199052   3.259846   1.752846 H        1 UNL1     0.2098
     109 H         1.080831   3.048114   -0.8493 H        1 UNL1     0.0234
     110 H         -0.176474   2.335227   -1.909384 H        1 UNL1     0.0234
     111 H         0.077774   4.045041   -1.882242 H        1 UNL1     0.0234
     112 H         -3.571016   -1.529002   1.446261 H        1 UNL1     0.0342
     113 H         -3.1967   0.095588   2.123631 H        1 UNL1     0.0342
     114 H         -4.404875   -0.083729   0.848433 H        1 UNL1     0.0342
     115 H         -2.64981   1.930806   3.324378 H        1 UNL1     0.0234
     116 H         -1.134301   1.9379   4.232105 H        1 UNL1     0.0234
     117 H         -1.645597   3.299194   3.21274 H        1 UNL1     0.0234
     118 H         0.945916   7.683562   -0.76965 H        1 UNL1     0.0309
     119 H         2.216669   7.784512   -2.027846 H        1 UNL1     0.0309
     120 H         1.458088   6.264733   -1.607154 H        1 UNL1     0.0309
     121 H         -0.346802   6.287637   2.812898 H        1 UNL1     0.0524
     122 H         -2.081236   6.031617   2.582578 H        1 UNL1     0.0524
     123 H         -1.267324   5.326805   4.001919 H        1 UNL1     0.0524
@<TRIPOS>BOND
     1     1     2    1
     2     1    42    1
     3     2     3    2
     4     3     4    1
     5     4     5    2
     6     5     7    1
     7     6    75    1
     8     6    76    1
     9     6    77    1
    10     7     9   am
    11     9    10    1
    12    10    11    2
    13    10    43    1
    14    11    14    1
    15    11    15    1
    16    12    13   ar
    17    12    27   ar
    18    12    43    1
    19    13    14    1
    20    13    30   ar
    21    14    17    2
    22    15    16    1
    23    16    17    1
    24    16    18    1
    25    16    22    1
    26    18    19    1
    27    19    20    1
    28    20    21    1
    29    21    22    1
    30    23    24    1
    31    23    88    1
    32    23    89    1
    33    24    25    1
    34    24    26    1
    35    24    90    1
    36    25    91    1
    37    25    92    1
    38    25    93    1
    39    26    94    1
    40    26    95    1
    41    26    96    1
    42    27    28   ar
    43    28    29   ar
    44    29    30   ar
    45    29    31    1
    46    30    33    1
    47    31    32    1
    48    32    33    1
    49    32    35    1
    50    34    97    1
    51    34    98    1
    52    34    99    1
    53    35    61    1
    54    36    37    1
    55    36    60    1
    56    37    38    1
    57    38    39    1
    58    39    40    1
    59    40    41    1
    60    41    42    1
    61    45   100    1
    62    47   101    1
    63    47   102    1
    64    47   103    1
    65    48   104    1
    66    49   105    1
    67    49   106    1
    68    49   107    1
    69    50   108    1
    70    51    59    1
    71    52   109    1
    72    52   110    1
    73    52   111    1
    74    53    54    1
    75    54    55    2
    76    54    56    1
    77    56   112    1
    78    56   113    1
    79    56   114    1
    80    57   115    1
    81    57   116    1
    82    57   117    1
    83    58   118    1
    84    58   119    1
    85    58   120    1
    86    59   121    1
    87    59   122    1
    88    59   123    1
    89    60    61    2
    90     1    47    1
    91     1    62    1
    92     2    63    1
    93     3    64    1
    94     4    65    1
    95     5     6    1
    96     7     8    2
    97     9    78    1
    98    15    79    1
    99    18    80    1
   100    18    81    1
   101    19    82    1
   102    19    83    1
   103    20    23    1
   104    21    84    1
   105    21    85    1
   106    22    86    1
   107    22    87    1
   108    27    45    1
   109    28    34    1
   110    32    58    1
   111    33    46    2
   112    36    51    1
   113    36    66    1
   114    37    52    1
   115    37    67    1
   116    38    53    1
   117    38    68    1
   118    42    48    1
   119    42    72    1
   120    43    44    2
   121    60    73    1
   122    61    74    1
   123    39    69    1
   124    39    57    1
   125    40    70    1
   126    40    50    1
   127    41    71    1
   128    41    49    1
