@<TRIPOS>MOLECULE
*****
 123 128 0 0 0
SMALL
GASTEIGER

@<TRIPOS>ATOM
     1 C         -1.69655   -4.0532   -0.073496 C.3        1 UNL1     0.0009
     2 C         -2.211686   -5.233954   1.25973 C.2        1 UNL1     -0.0787
     3 C         -1.878287   -6.252494   2.23311 C.2        1 UNL1     -0.0649
     4 C         -2.894108   -6.960885   3.387513 C.2        1 UNL1     -0.0542
     5 C         -2.941586   -7.679575   4.607475 C.2        1 UNL1     0.0115
     6 C         -2.08157   -8.452802   5.644691 C.3        1 UNL1     -0.0348
     7 C         -4.313264   -7.705387   5.441036 C.2        1 UNL1     0.2441
     8 O         -5.07331   -8.663956   5.44214 O.2        1 UNL1     -0.2702
     9 N         -4.455898   -6.66257   6.372883 N.am        1 UNL1     -0.2772
     10 C         -5.028429   -5.561878   5.777896 C.2        1 UNL1     0.1049
     11 C         -4.209201   -4.767625   5.112878 C.2        1 UNL1     0.0801
     12 C         -6.944532   -4.8613   4.330461 C.ar        1 UNL1     0.0753
     13 C         -5.980855   -4.183433   3.517792 C.ar        1 UNL1     0.0305
     14 C         -4.598696   -4.005861   3.95729 C.2        1 UNL1     0.0924
     15 N         -2.865691   -4.736479   5.089639 N.pl3        1 UNL1     -0.3170
     16 C         -2.465982   -3.573031   4.343398 C.3        1 UNL1     0.1275
     17 N         -3.607248   -3.327121   3.386965 N.2        1 UNL1     -0.2557
     18 C         -2.463208   -2.393848   5.311501 C.3        1 UNL1     0.0016
     19 C         -1.555903   -2.729664   6.484367 C.3        1 UNL1     0.0026
     20 N         -0.216335   -2.995345   5.978403 N.3        1 UNL1     -0.3018
     21 C         -0.126797   -4.074384   4.992489 C.3        1 UNL1     0.0026
     22 C         -1.042277   -3.714082   3.821177 C.3        1 UNL1     0.0016
     23 C         0.785239   -3.030642   7.025421 C.3        1 UNL1     0.0012
     24 C         0.841015   -4.424304   7.670675 C.3        1 UNL1     -0.0339
     25 C         2.290845   -4.905347   7.845742 C.3        1 UNL1     -0.0615
     26 C         0.091109   -4.417089   8.991421 C.3        1 UNL1     -0.0615
     27 C         -8.286096   -4.921325   3.960701 C.ar        1 UNL1     0.1347
     28 C         -8.787749   -4.309856   2.82558 C.ar        1 UNL1     0.0342
     29 C         -7.812499   -3.69008   2.015685 C.ar        1 UNL1     0.1435
     30 C         -6.459447   -3.653082   2.354954 C.ar        1 UNL1     0.0774
     31 O         -8.156607   -2.95738   0.934137 O.3        1 UNL1     -0.4436
     32 C         -7.009741   -2.134015   0.674056 C.3        1 UNL1     0.3143
     33 C         -5.843947   -2.867644   1.305662 C.2        1 UNL1     0.2504
     34 C         -10.242178   -4.117564   2.497313 C.3        1 UNL1     -0.0327
     35 O         -6.790818   -2.14355   -0.742006 O.2        1 UNL1     -0.4528
     36 C         -5.220703   1.210425   -1.57488 C.3        1 UNL1     0.0854
     37 C         -3.900623   1.860882   -1.007591 C.3        1 UNL1     0.0236
     38 C         -2.8307   2.297895   -2.11936 C.3        1 UNL1     0.1131
     39 C         -2.388685   1.264686   -3.232632 C.3        1 UNL1     0.0200
     40 C         -2.054295   -0.31923   -2.830351 C.3        1 UNL1     0.0661
     41 C         -1.034225   -0.831629   -1.575554 C.3        1 UNL1     0.0091
     42 C         -1.117221   -2.320789   -0.507417 C.3        1 UNL1     0.0661
     43 C         -6.484236   -5.421624   5.625229 C.2        1 UNL1     0.2131
     44 O         -7.229343   -5.660135   6.558323 O.2        1 UNL1     -0.2851
     45 O         -9.150681   -5.639583   4.784131 O.3        1 UNL1     -0.5056
     46 O         -4.67367   -2.829561   0.997679 O.2        1 UNL1     -0.2836
     47 C         -1.410888   -4.820434   -1.392485 C.3        1 UNL1     -0.0566
     48 O         0.314851   -2.664695   -0.680664 O.3        1 UNL1     -0.3909
     49 C         -0.745067   0.345051   -0.670398 C.3        1 UNL1     -0.0577
     50 O         -3.232872   -1.09929   -2.843975 O.3        1 UNL1     -0.3910
     51 O         -5.226704   0.934578   -2.957379 O.3        1 UNL1     -0.3753
     52 C         -3.471629   1.216268   0.350858 C.3        1 UNL1     -0.0564
     53 O         -1.763648   3.215487   -1.598065 O.3        1 UNL1     -0.4608
     54 C         -1.358718   4.382331   -2.191729 C.2        1 UNL1     0.3042
     55 O         -0.652887   4.50564   -3.191946 O.2        1 UNL1     -0.2512
     56 C         -1.914844   5.614722   -1.537015 C.3        1 UNL1     0.0332
     57 C         -3.294116   1.530437   -4.524045 C.3        1 UNL1     -0.0567
     58 C         -7.239386   -0.809831   1.439124 C.3        1 UNL1     0.0210
     59 C         -5.959459   1.866529   -3.751359 C.3        1 UNL1     0.0372
     60 C         -5.653563   -0.036177   -0.886566 C.2        1 UNL1     -0.0208
     61 C         -6.085525   -1.194536   -1.386925 C.2        1 UNL1     0.0882
     62 H         -2.733093   -3.700329   -0.134924 H        1 UNL1     0.0365
     63 H         -3.294317   -5.091479   1.250702 H        1 UNL1     0.0576
     64 H         -0.843837   -6.55   2.418879 H        1 UNL1     0.0615
     65 H         -3.89747   -6.668345   3.066316 H        1 UNL1     0.0622
     66 H         -6.004116   1.954184   -1.37207 H        1 UNL1     0.0645
     67 H         -4.22931   2.841558   -0.621845 H        1 UNL1     0.0362
     68 H         -3.417861   3.063769   -2.648701 H        1 UNL1     0.0741
     69 H         -1.457251   1.600266   -3.668779 H        1 UNL1     0.0359
     70 H         -1.503657   -0.634158   -3.737367 H        1 UNL1     0.0600
     71 H         -0.078181   -0.920697   -2.127825 H        1 UNL1     0.0348
     72 H         -1.735882   -2.544753   -1.38856 H        1 UNL1     0.0602
     73 H         -5.70117   0.140805   0.159215 H        1 UNL1     0.0628
     74 H         -6.017108   -1.47589   -2.438304 H        1 UNL1     0.1022
     75 H         -1.782226   -9.449784   5.240396 H        1 UNL1     0.0279
     76 H         -1.123772   -8.009461   5.907636 H        1 UNL1     0.0279
     77 H         -2.65287   -8.743891   6.538327 H        1 UNL1     0.0279
     78 H         -3.539402   -6.3831   6.716408 H        1 UNL1     0.1553
     79 H         -2.286579   -5.156505   5.793302 H        1 UNL1     0.1484
     80 H         -2.118257   -1.497454   4.782112 H        1 UNL1     0.0317
     81 H         -3.476196   -2.177353   5.667361 H        1 UNL1     0.0317
     82 H         -1.93733   -3.584147   7.06254 H        1 UNL1     0.0428
     83 H         -1.569941   -1.876337   7.163106 H        1 UNL1     0.0428
     84 H         0.874846   -4.200334   4.569807 H        1 UNL1     0.0428
     85 H         -0.354154   -5.0535   5.436287 H        1 UNL1     0.0428
     86 H         -0.85095   -4.453726   3.065988 H        1 UNL1     0.0317
     87 H         -0.703728   -2.78112   3.354204 H        1 UNL1     0.0317
     88 H         1.7616   -2.816374   6.571435 H        1 UNL1     0.0429
     89 H         0.602879   -2.252812   7.778083 H        1 UNL1     0.0429
     90 H         0.311176   -5.138535   7.029302 H        1 UNL1     0.0308
     91 H         2.973523   -4.06388   7.99735 H        1 UNL1     0.0233
     92 H         2.371104   -5.589556   8.693695 H        1 UNL1     0.0233
     93 H         2.656026   -5.457737   6.971474 H        1 UNL1     0.0233
     94 H         0.243979   -5.365485   9.51774 H        1 UNL1     0.0233
     95 H         0.466855   -3.61276   9.630038 H        1 UNL1     0.0233
     96 H         -0.982601   -4.27513   8.839891 H        1 UNL1     0.0233
     97 H         -10.87251   -4.19607   3.378079 H        1 UNL1     0.0280
     98 H         -10.442724   -3.125664   2.07167 H        1 UNL1     0.0280
     99 H         -10.561911   -4.885469   1.773995 H        1 UNL1     0.0280
     100 H         -8.734894   -6.060818   5.515776 H        1 UNL1     0.2922
     101 H         -0.372465   -4.670809   -1.687352 H        1 UNL1     0.0236
     102 H         -2.104131   -4.56779   -2.194089 H        1 UNL1     0.0236
     103 H         -1.511797   -5.911442   -1.26714 H        1 UNL1     0.0236
     104 H         0.524518   -2.584348   -1.631745 H        1 UNL1     0.2098
     105 H         -0.352404   1.219841   -1.182619 H        1 UNL1     0.0234
     106 H         -1.568641   0.628833   -0.015326 H        1 UNL1     0.0234
     107 H         0.0   0.0   0.0 H        1 UNL1     0.0234
     108 H         -3.938185   -0.566536   -2.428676 H        1 UNL1     0.2098
     109 H         -2.588721   0.570616   0.244468 H        1 UNL1     0.0234
     110 H         -3.29279   1.954448   1.140067 H        1 UNL1     0.0234
     111 H         -4.261951   0.573795   0.761426 H        1 UNL1     0.0234
     112 H         -1.91245   5.491811   -0.44971 H        1 UNL1     0.0342
     113 H         -1.374143   6.513477   -1.829805 H        1 UNL1     0.0342
     114 H         -2.958179   5.733812   -1.860178 H        1 UNL1     0.0342
     115 H         -3.191636   2.561508   -4.889529 H        1 UNL1     0.0234
     116 H         -3.080587   0.862635   -5.361001 H        1 UNL1     0.0234
     117 H         -4.377484   1.483747   -4.318923 H        1 UNL1     0.0234
     118 H         -6.412461   -0.584331   2.135078 H        1 UNL1     0.0309
     119 H         -7.393972   0.047809   0.776735 H        1 UNL1     0.0309
     120 H         -8.116829   -0.849354   2.093828 H        1 UNL1     0.0309
     121 H         -7.004472   1.807861   -3.44827 H        1 UNL1     0.0524
     122 H         -5.625446   2.905336   -3.592129 H        1 UNL1     0.0524
     123 H         -5.86052   1.621964   -4.805158 H        1 UNL1     0.0524
@<TRIPOS>BOND
     1     1     2    1
     2     1    42    1
     3     2     3    2
     4     3     4    1
     5     4     5    2
     6     5     7    1
     7     6    75    1
     8     6    76    1
     9     6    77    1
    10     7     9   am
    11     9    10    1
    12    10    11    2
    13    10    43    1
    14    11    14    1
    15    11    15    1
    16    12    13   ar
    17    12    27   ar
    18    12    43    1
    19    13    14    1
    20    13    30   ar
    21    14    17    2
    22    15    16    1
    23    16    17    1
    24    16    18    1
    25    16    22    1
    26    18    19    1
    27    19    20    1
    28    20    21    1
    29    21    22    1
    30    23    24    1
    31    23    88    1
    32    23    89    1
    33    24    25    1
    34    24    26    1
    35    24    90    1
    36    25    91    1
    37    25    92    1
    38    25    93    1
    39    26    94    1
    40    26    95    1
    41    26    96    1
    42    27    28   ar
    43    28    29   ar
    44    29    30   ar
    45    29    31    1
    46    30    33    1
    47    31    32    1
    48    32    33    1
    49    32    35    1
    50    34    97    1
    51    34    98    1
    52    34    99    1
    53    35    61    1
    54    36    37    1
    55    36    60    1
    56    37    38    1
    57    38    39    1
    58    39    40    1
    59    40    41    1
    60    41    42    1
    61    45   100    1
    62    47   101    1
    63    47   102    1
    64    47   103    1
    65    48   104    1
    66    49   105    1
    67    49   106    1
    68    49   107    1
    69    50   108    1
    70    51    59    1
    71    52   109    1
    72    52   110    1
    73    52   111    1
    74    53    54    1
    75    54    55    2
    76    54    56    1
    77    56   112    1
    78    56   113    1
    79    56   114    1
    80    57   115    1
    81    57   116    1
    82    57   117    1
    83    58   118    1
    84    58   119    1
    85    58   120    1
    86    59   121    1
    87    59   122    1
    88    59   123    1
    89    60    61    2
    90     1    47    1
    91     1    62    1
    92     2    63    1
    93     3    64    1
    94     4    65    1
    95     5     6    1
    96     7     8    2
    97     9    78    1
    98    15    79    1
    99    18    80    1
   100    18    81    1
   101    19    82    1
   102    19    83    1
   103    20    23    1
   104    21    84    1
   105    21    85    1
   106    22    86    1
   107    22    87    1
   108    27    45    1
   109    28    34    1
   110    32    58    1
   111    33    46    2
   112    36    51    1
   113    36    66    1
   114    37    52    1
   115    37    67    1
   116    38    53    1
   117    38    68    1
   118    42    48    1
   119    42    72    1
   120    43    44    2
   121    60    73    1
   122    61    74    1
   123    39    69    1
   124    39    57    1
   125    40    70    1
   126    40    50    1
   127    41    71    1
   128    41    49    1
