@<TRIPOS>MOLECULE
*****
 123 128 0 0 0
SMALL
GASTEIGER

@<TRIPOS>ATOM
     1 C         2.500322   0.011388   4.874425 C.3        1 UNL1     0.0009
     2 C         3.876938   -0.697212   5.894156 C.2        1 UNL1     -0.0787
     3 C         4.339515   -1.606543   6.921379 C.2        1 UNL1     -0.0649
     4 C         5.935342   -1.919602   7.392217 C.2        1 UNL1     -0.0542
     5 C         6.794029   -2.836758   8.04686 C.2        1 UNL1     0.0115
     6 C         6.829513   -4.116738   8.926471 C.3        1 UNL1     -0.0348
     7 C         8.376038   -2.736409   7.793549 C.2        1 UNL1     0.2441
     8 O         9.147962   -2.231902   8.597372 O.2        1 UNL1     -0.2702
     9 N         8.848448   -3.497257   6.709994 N.am        1 UNL1     -0.2772
     10 C         8.780635   -2.76782   5.545243 C.2        1 UNL1     0.1049
     11 C         7.608455   -2.750016   4.937049 C.2        1 UNL1     0.0801
     12 C         9.369098   -0.545336   4.55954 C.ar        1 UNL1     0.0753
     13 C         8.016114   -0.480045   4.097178 C.ar        1 UNL1     0.0305
     14 C         7.129775   -1.640092   4.15839 C.2        1 UNL1     0.0924
     15 N         6.512597   -3.49812   5.15144 N.pl3        1 UNL1     -0.3170
     16 C         5.567909   -3.203047   4.10705 C.3        1 UNL1     0.1275
     17 N         5.893285   -1.789074   3.691676 N.2        1 UNL1     -0.2557
     18 C         5.92148   -4.086699   2.914637 C.3        1 UNL1     0.0016
     19 C         5.922941   -5.537856   3.368213 C.3        1 UNL1     0.0026
     20 N         4.603672   -5.865991   3.890595 N.3        1 UNL1     -0.3018
     21 C         4.148961   -5.027907   5.002001 C.3        1 UNL1     0.0026
     22 C         4.150812   -3.575228   4.522822 C.3        1 UNL1     0.0016
     23 C         4.406666   -7.290595   4.070416 C.3        1 UNL1     0.0012
     24 C         4.306431   -7.996549   2.709043 C.3        1 UNL1     -0.0339
     25 C         5.624937   -8.69606   2.339874 C.3        1 UNL1     -0.0615
     26 C         3.139444   -8.968617   2.711154 C.3        1 UNL1     -0.0615
     27 C         10.243011   0.525587   4.387733 C.ar        1 UNL1     0.1347
     28 C         9.891372   1.694008   3.735665 C.ar        1 UNL1     0.0342
     29 C         8.540508   1.754851   3.332395 C.ar        1 UNL1     0.1435
     30 C         7.643795   0.704098   3.529993 C.ar        1 UNL1     0.0774
     31 O         8.072781   2.780531   2.587937 O.3        1 UNL1     -0.4436
     32 C         6.865078   2.278115   1.996411 C.3        1 UNL1     0.3143
     33 C         6.4162   1.153131   2.906979 C.2        1 UNL1     0.2504
     34 C         10.836964   2.776054   3.293928 C.3        1 UNL1     -0.0327
     35 O         5.879478   3.313505   2.095476 O.2        1 UNL1     -0.4528
     36 C         3.576781   2.846976   -0.885803 C.3        1 UNL1     0.0854
     37 C         2.73362   1.581748   -1.305089 C.3        1 UNL1     0.0236
     38 C         1.164673   1.84971   -1.500909 C.3        1 UNL1     0.1131
     39 C         0.346595   2.587937   -0.365992 C.3        1 UNL1     0.0200
     40 C         0.576497   2.188504   1.237142 C.3        1 UNL1     0.0661
     41 C         0.564317   0.619489   1.881855 C.3        1 UNL1     0.0091
     42 C         1.494554   -0.094665   3.292544 C.3        1 UNL1     0.0661
     43 C         9.836769   -1.824796   5.148204 C.2        1 UNL1     0.2131
     44 O         11.009335   -2.146447   5.214286 O.2        1 UNL1     -0.2851
     45 O         11.529527   0.398147   4.907419 O.3        1 UNL1     -0.5056
     46 O         5.294863   0.73622   3.093102 O.2        1 UNL1     -0.2836
     47 C         1.64479   0.986838   5.726799 C.3        1 UNL1     -0.0566
     48 O         0.305029   -0.741901   3.896887 O.3        1 UNL1     -0.3909
     49 C         0.652597   -0.375457   0.74617 C.3        1 UNL1     -0.0577
     50 O         1.645432   2.929756   1.789994 O.3        1 UNL1     -0.3910
     51 O         2.835741   4.00314   -0.567093 O.3        1 UNL1     -0.3753
     52 C         3.277125   0.274371   -0.641525 C.3        1 UNL1     -0.0564
     53 O         0.452931   0.745885   -2.227078 O.3        1 UNL1     -0.4608
     54 C         -0.814382   0.302024   -1.953517 C.2        1 UNL1     0.3042
     55 O         -1.133128   -0.718998   -1.345443 O.2        1 UNL1     -0.2512
     56 C         -1.893224   1.235185   -2.424712 C.3        1 UNL1     0.0332
     57 C         0.287513   4.140397   -0.746194 C.3        1 UNL1     -0.0567
     58 C         7.264151   1.681973   0.626417 C.3        1 UNL1     0.0210
     59 C         2.908253   5.047679   -1.536394 C.3        1 UNL1     0.0372
     60 C         4.528889   2.62451   0.23632 C.2        1 UNL1     -0.0208
     61 C         4.784045   3.36796   1.313781 C.2        1 UNL1     0.0882
     62 H         3.23667   0.624918   4.341429 H        1 UNL1     0.0365
     63 H         4.715802   -0.084373   5.557696 H        1 UNL1     0.0576
     64 H         3.666767   -2.324879   7.395203 H        1 UNL1     0.0615
     65 H         6.506376   -1.107714   6.933696 H        1 UNL1     0.0622
     66 H         4.195616   3.07042   -1.766237 H        1 UNL1     0.0645
     67 H         3.052691   1.378599   -2.342144 H        1 UNL1     0.0362
     68 H         1.202752   2.55915   -2.341603 H        1 UNL1     0.0741
     69 H         -0.706922   2.389322   -0.511114 H        1 UNL1     0.0359
     70 H         -0.331739   2.641517   1.678669 H        1 UNL1     0.0600
     71 H         -0.503792   0.534169   2.162606 H        1 UNL1     0.0348
     72 H         1.523379   0.99586   3.431252 H        1 UNL1     0.0602
     73 H         5.136606   1.782027   0.016888 H        1 UNL1     0.0628
     74 H         4.174058   4.211104   1.639759 H        1 UNL1     0.1022
     75 H         6.024266   -4.083638   9.699463 H        1 UNL1     0.0279
     76 H         6.630026   -5.058725   8.420572 H        1 UNL1     0.0279
     77 H         7.730519   -4.176358   9.554432 H        1 UNL1     0.0279
     78 H         8.263281   -4.321401   6.589819 H        1 UNL1     0.1553
     79 H         6.522494   -4.371945   5.644659 H        1 UNL1     0.1484
     80 H         5.190089   -3.917713   2.115089 H        1 UNL1     0.0317
     81 H         6.901152   -3.817844   2.505234 H        1 UNL1     0.0317
     82 H         6.704466   -5.729199   4.118225 H        1 UNL1     0.0428
     83 H         6.179155   -6.150307   2.503165 H        1 UNL1     0.0428
     84 H         3.124796   -5.242474   5.322716 H        1 UNL1     0.0428
     85 H         4.75097   -5.187481   5.907229 H        1 UNL1     0.0428
     86 H         3.689425   -3.009738   5.311068 H        1 UNL1     0.0317
     87 H         3.454156   -3.456471   3.683975 H        1 UNL1     0.0317
     88 H         5.276242   -7.690426   4.608253 H        1 UNL1     0.0429
     89 H         3.523546   -7.496078   4.689003 H        1 UNL1     0.0429
     90 H         4.076506   -7.254212   1.935555 H        1 UNL1     0.0308
     91 H         6.021059   -9.268946   3.18367 H        1 UNL1     0.0233
     92 H         5.482039   -9.364842   1.487864 H        1 UNL1     0.0233
     93 H         6.405879   -7.985456   2.043217 H        1 UNL1     0.0233
     94 H         3.282092   -9.731686   1.938358 H        1 UNL1     0.0233
     95 H         3.077236   -9.475623   3.678127 H        1 UNL1     0.0233
     96 H         2.19263   -8.455851   2.519884 H        1 UNL1     0.0233
     97 H         10.790127   2.945624   2.222348 H        1 UNL1     0.0280
     98 H         10.607409   3.742486   3.761443 H        1 UNL1     0.0280
     99 H         11.869885   2.492333   3.554069 H        1 UNL1     0.0280
     100 H         11.563643   0.102452   5.80018 H        1 UNL1     0.2922
     101 H         1.084547   1.653326   5.071376 H        1 UNL1     0.0236
     102 H         2.228267   1.535142   6.46565 H        1 UNL1     0.0236
     103 H         0.874595   0.458226   6.31294 H        1 UNL1     0.0236
     104 H         -0.450846   -0.132652   3.785353 H        1 UNL1     0.2098
     105 H         1.642431   -0.468334   0.306383 H        1 UNL1     0.0234
     106 H         0.245335   -1.361002   0.971487 H        1 UNL1     0.0234
     107 H         0.0   0.0   0.0 H        1 UNL1     0.0234
     108 H         1.885097   2.505899   2.636561 H        1 UNL1     0.2098
     109 H         4.315112   0.060709   -0.932461 H        1 UNL1     0.0234
     110 H         3.19664   0.280582   0.450825 H        1 UNL1     0.0234
     111 H         2.695787   -0.606036   -0.946279 H        1 UNL1     0.0234
     112 H         -2.692831   0.665747   -2.908153 H        1 UNL1     0.0342
     113 H         -2.285303   1.849694   -1.615703 H        1 UNL1     0.0342
     114 H         -1.459318   1.910199   -3.175209 H        1 UNL1     0.0342
     115 H         -0.652031   4.605818   -0.417822 H        1 UNL1     0.0234
     116 H         1.108113   4.730209   -0.332931 H        1 UNL1     0.0234
     117 H         0.24861   4.325878   -1.833404 H        1 UNL1     0.0234
     118 H         6.880486   2.284447   -0.215505 H        1 UNL1     0.0309
     119 H         8.34525   1.554178   0.51198 H        1 UNL1     0.0309
     120 H         6.822047   0.69482   0.452689 H        1 UNL1     0.0309
     121 H         2.72085   5.989291   -1.021027 H        1 UNL1     0.0524
     122 H         3.905095   5.117176   -2.002779 H        1 UNL1     0.0524
     123 H         2.165496   4.891455   -2.313568 H        1 UNL1     0.0524
@<TRIPOS>BOND
     1     1     2    1
     2     1    42    1
     3     2     3    2
     4     3     4    1
     5     4     5    2
     6     5     7    1
     7     6    75    1
     8     6    76    1
     9     6    77    1
    10     7     9   am
    11     9    10    1
    12    10    11    2
    13    10    43    1
    14    11    14    1
    15    11    15    1
    16    12    13   ar
    17    12    27   ar
    18    12    43    1
    19    13    14    1
    20    13    30   ar
    21    14    17    2
    22    15    16    1
    23    16    17    1
    24    16    18    1
    25    16    22    1
    26    18    19    1
    27    19    20    1
    28    20    21    1
    29    21    22    1
    30    23    24    1
    31    23    88    1
    32    23    89    1
    33    24    25    1
    34    24    26    1
    35    24    90    1
    36    25    91    1
    37    25    92    1
    38    25    93    1
    39    26    94    1
    40    26    95    1
    41    26    96    1
    42    27    28   ar
    43    28    29   ar
    44    29    30   ar
    45    29    31    1
    46    30    33    1
    47    31    32    1
    48    32    33    1
    49    32    35    1
    50    34    97    1
    51    34    98    1
    52    34    99    1
    53    35    61    1
    54    36    37    1
    55    36    60    1
    56    37    38    1
    57    38    39    1
    58    39    40    1
    59    40    41    1
    60    41    42    1
    61    45   100    1
    62    47   101    1
    63    47   102    1
    64    47   103    1
    65    48   104    1
    66    49   105    1
    67    49   106    1
    68    49   107    1
    69    50   108    1
    70    51    59    1
    71    52   109    1
    72    52   110    1
    73    52   111    1
    74    53    54    1
    75    54    55    2
    76    54    56    1
    77    56   112    1
    78    56   113    1
    79    56   114    1
    80    57   115    1
    81    57   116    1
    82    57   117    1
    83    58   118    1
    84    58   119    1
    85    58   120    1
    86    59   121    1
    87    59   122    1
    88    59   123    1
    89    60    61    2
    90     1    47    1
    91     1    62    1
    92     2    63    1
    93     3    64    1
    94     4    65    1
    95     5     6    1
    96     7     8    2
    97     9    78    1
    98    15    79    1
    99    18    80    1
   100    18    81    1
   101    19    82    1
   102    19    83    1
   103    20    23    1
   104    21    84    1
   105    21    85    1
   106    22    86    1
   107    22    87    1
   108    27    45    1
   109    28    34    1
   110    32    58    1
   111    33    46    2
   112    36    51    1
   113    36    66    1
   114    37    52    1
   115    37    67    1
   116    38    53    1
   117    38    68    1
   118    42    48    1
   119    42    72    1
   120    43    44    2
   121    60    73    1
   122    61    74    1
   123    39    69    1
   124    39    57    1
   125    40    70    1
   126    40    50    1
   127    41    71    1
   128    41    49    1
