@<TRIPOS>MOLECULE
*****
 123 128 0 0 0
SMALL
GASTEIGER

@<TRIPOS>ATOM
     1 C         5.167127   1.746908   0.498696 C.3        1 UNL1     0.0009
     2 C         6.605764   2.551223   -0.350091 C.2        1 UNL1     -0.0787
     3 C         7.8889   2.451576   -1.013173 C.2        1 UNL1     -0.0649
     4 C         8.768271   3.685251   -1.768891 C.2        1 UNL1     -0.0542
     5 C         9.79023   3.976124   -2.705945 C.2        1 UNL1     0.0115
     6 C         10.919881   3.348977   -3.568441 C.3        1 UNL1     -0.0348
     7 C         9.887294   5.458438   -3.314476 C.2        1 UNL1     0.2441
     8 O         10.710743   6.280348   -2.936425 O.2        1 UNL1     -0.2702
     9 N         9.139429   5.663931   -4.486919 N.am        1 UNL1     -0.2772
     10 C         7.856248   6.051548   -4.17624 C.2        1 UNL1     0.1049
     11 C         7.009539   5.08088   -3.884505 C.2        1 UNL1     0.0801
     12 C         6.555703   7.660777   -2.770432 C.ar        1 UNL1     0.0753
     13 C         5.795361   6.533808   -2.322739 C.ar        1 UNL1     0.0305
     14 C         5.913068   5.227102   -2.965947 C.2        1 UNL1     0.0924
     15 N         7.13198   3.751622   -4.041371 N.pl3        1 UNL1     -0.3170
     16 C         5.861291   3.153385   -3.728775 C.3        1 UNL1     0.1275
     17 N         5.223336   4.110313   -2.751521 N.2        1 UNL1     -0.2557
     18 C         5.010926   3.210879   -4.99419 C.3        1 UNL1     0.0016
     19 C         5.767751   2.524828   -6.120307 C.3        1 UNL1     0.0026
     20 N         6.036635   1.147205   -5.731866 N.3        1 UNL1     -0.3018
     21 C         6.797518   0.988383   -4.490818 C.3        1 UNL1     0.0026
     22 C         6.016846   1.68086   -3.372372 C.3        1 UNL1     0.0016
     23 C         6.482999   0.325849   -6.839465 C.3        1 UNL1     0.0012
     24 C         5.328259   0.071694   -7.821166 C.3        1 UNL1     -0.0339
     25 C         5.346961   1.077535   -8.983918 C.3        1 UNL1     -0.0615
     26 C         5.375718   -1.361672   -8.321156 C.3        1 UNL1     -0.0615
     27 C         6.350459   8.92935   -2.233109 C.ar        1 UNL1     0.1347
     28 C         5.389634   9.200682   -1.275381 C.ar        1 UNL1     0.0342
     29 C         4.68676   8.067178   -0.81462 C.ar        1 UNL1     0.1435
     30 C         4.906714   6.784317   -1.317718 C.ar        1 UNL1     0.0774
     31 O         3.644153   8.182401   0.036673 O.3        1 UNL1     -0.4436
     32 C         2.922299   6.949633   -0.105046 C.3        1 UNL1     0.3143
     33 C         3.936263   5.955363   -0.633739 C.2        1 UNL1     0.2504
     34 C         4.942442   10.567607   -0.837619 C.3        1 UNL1     -0.0327
     35 O         2.558946   6.515036   1.211142 O.2        1 UNL1     -0.4528
     36 C         -0.684034   4.583442   0.811006 C.3        1 UNL1     0.0854
     37 C         -0.988062   3.321626   -0.085046 C.3        1 UNL1     0.0236
     38 C         -1.590609   2.061984   0.703614 C.3        1 UNL1     0.1131
     39 C         -0.867572   1.532738   2.007219 C.3        1 UNL1     0.0200
     40 C         0.793483   1.386648   2.051827 C.3        1 UNL1     0.0661
     41 C         1.754834   0.615714   0.886033 C.3        1 UNL1     0.0091
     42 C         3.463645   0.976799   0.324797 C.3        1 UNL1     0.0661
     43 C         7.50784   7.451044   -3.889229 C.2        1 UNL1     0.2131
     44 O         7.909446   8.347895   -4.608331 O.2        1 UNL1     -0.2851
     45 O         7.163994   9.96347   -2.691578 O.3        1 UNL1     -0.5056
     46 O         3.951555   4.75202   -0.501122 O.2        1 UNL1     -0.2836
     47 C         5.560544   1.31945   1.938308 C.3        1 UNL1     -0.0566
     48 O         3.911528   -0.434345   0.409575 O.3        1 UNL1     -0.3909
     49 C         0.922964   0.381563   -0.3552 C.3        1 UNL1     -0.0577
     50 O         1.39337   2.60488   2.443961 O.3        1 UNL1     -0.3910
     51 O         -0.810887   4.395909   2.202469 O.3        1 UNL1     -0.3753
     52 C         0.058563   3.159035   -1.235302 C.3        1 UNL1     -0.0564
     53 O         -2.191853   1.021867   -0.195824 O.3        1 UNL1     -0.4608
     54 C         -2.415293   -0.287535   0.141031 C.2        1 UNL1     0.3042
     55 O         -1.842625   -1.281407   -0.304064 O.2        1 UNL1     -0.2512
     56 C         -3.446822   -0.463639   1.218829 C.3        1 UNL1     0.0332
     57 C         -1.590792   2.203897   3.266056 C.3        1 UNL1     -0.0567
     58 C         1.849295   7.193483   -1.191659 C.3        1 UNL1     0.0210
     59 C         -1.163698   5.568075   2.935556 C.3        1 UNL1     0.0372
     60 C         0.645638   5.211689   0.582013 C.2        1 UNL1     -0.0208
     61 C         1.557052   5.647898   1.452525 C.2        1 UNL1     0.0882
     62 H         4.691404   2.731386   0.583557 H        1 UNL1     0.0365
     63 H         6.339704   3.605278   -0.246893 H        1 UNL1     0.0576
     64 H         8.346622   1.484225   -1.231875 H        1 UNL1     0.0615
     65 H         8.280859   4.60135   -1.424398 H        1 UNL1     0.0622
     66 H         -1.427807   5.329774   0.498217 H        1 UNL1     0.0645
     67 H         -1.852313   3.630385   -0.698477 H        1 UNL1     0.0362
     68 H         -2.538195   2.499741   1.05286 H        1 UNL1     0.0741
     69 H         -1.199848   0.522059   2.203508 H        1 UNL1     0.0359
     70 H         0.903312   0.72761   2.934248 H        1 UNL1     0.0600
     71 H         1.797212   -0.404821   1.314602 H        1 UNL1     0.0348
     72 H         3.356054   1.466526   1.303525 H        1 UNL1     0.0602
     73 H         0.765607   5.407325   -0.454608 H        1 UNL1     0.0628
     74 H         1.537363   5.43886   2.522643 H        1 UNL1     0.1022
     75 H         10.963656   2.243915   -3.413665 H        1 UNL1     0.0279
     76 H         10.808361   3.430174   -4.647347 H        1 UNL1     0.0279
     77 H         11.924438   3.653804   -3.240343 H        1 UNL1     0.0279
     78 H         9.078117   4.793211   -5.010527 H        1 UNL1     0.1553
     79 H         7.79828   3.32245   -4.656829 H        1 UNL1     0.1484
     80 H         4.049089   2.720596   -4.801166 H        1 UNL1     0.0317
     81 H         4.785227   4.247304   -5.267201 H        1 UNL1     0.0317
     82 H         6.699088   3.055409   -6.367302 H        1 UNL1     0.0428
     83 H         5.14434   2.57885   -7.01333 H        1 UNL1     0.0428
     84 H         6.916853   -0.054143   -4.179837 H        1 UNL1     0.0428
     85 H         7.827946   1.355877   -4.593207 H        1 UNL1     0.0428
     86 H         6.531425   1.431684   -2.462917 H        1 UNL1     0.0317
     87 H         5.036984   1.203776   -3.248447 H        1 UNL1     0.0317
     88 H         7.278093   0.867919   -7.367936 H        1 UNL1     0.0429
     89 H         6.917393   -0.618201   -6.486131 H        1 UNL1     0.0429
     90 H         4.375222   0.171639   -7.288302 H        1 UNL1     0.0308
     91 H         6.295092   1.0383   -9.528538 H        1 UNL1     0.0233
     92 H         4.526345   0.881058   -9.677889 H        1 UNL1     0.0233
     93 H         5.218323   2.112071   -8.643299 H        1 UNL1     0.0233
     94 H         4.67953   -1.493559   -9.156478 H        1 UNL1     0.0233
     95 H         6.38122   -1.599253   -8.679604 H        1 UNL1     0.0233
     96 H         5.106151   -2.068812   -7.531691 H        1 UNL1     0.0233
     97 H         4.14766   10.519246   -0.099233 H        1 UNL1     0.0280
     98 H         5.7545   11.138063   -0.368153 H        1 UNL1     0.0280
     99 H         4.570651   11.130955   -1.709115 H        1 UNL1     0.0280
     100 H         6.697859   10.713367   -3.017148 H        1 UNL1     0.2922
     101 H         4.697002   0.885473   2.44191 H        1 UNL1     0.0236
     102 H         6.009116   2.125923   2.517418 H        1 UNL1     0.0236
     103 H         6.317637   0.517577   1.939894 H        1 UNL1     0.0236
     104 H         4.329332   -0.559159   1.284122 H        1 UNL1     0.2098
     105 H         0.712388   1.279488   -0.930699 H        1 UNL1     0.0234
     106 H         1.292904   -0.408102   -1.009036 H        1 UNL1     0.0234
     107 H         0.0   -0.0   0.0 H        1 UNL1     0.0234
     108 H         1.194005   3.262883   1.75038 H        1 UNL1     0.2098
     109 H         1.081853   3.039572   -0.852786 H        1 UNL1     0.0234
     110 H         -0.176171   2.334833   -1.917456 H        1 UNL1     0.0234
     111 H         0.085741   4.043411   -1.885754 H        1 UNL1     0.0234
     112 H         -3.574126   -1.5273   1.44191 H        1 UNL1     0.0342
     113 H         -3.198844   0.097336   2.118639 H        1 UNL1     0.0342
     114 H         -4.40551   -0.081487   0.841945 H        1 UNL1     0.0342
     115 H         -2.655151   1.93594   3.316331 H        1 UNL1     0.0234
     116 H         -1.141194   1.944651   4.22663 H        1 UNL1     0.0234
     117 H         -1.650738   3.304121   3.203961 H        1 UNL1     0.0234
     118 H         0.947608   7.681347   -0.781834 H        1 UNL1     0.0309
     119 H         2.220509   7.78004   -2.038036 H        1 UNL1     0.0309
     120 H         1.461199   6.261019   -1.615922 H        1 UNL1     0.0309
     121 H         -0.364707   6.296073   2.797748 H        1 UNL1     0.0524
     122 H         -2.097133   6.026118   2.568224 H        1 UNL1     0.0524
     123 H         -1.277896   5.331918   3.989729 H        1 UNL1     0.0524
@<TRIPOS>BOND
     1     1     2    1
     2     1    42    1
     3     2     3    2
     4     3     4    1
     5     4     5    2
     6     5     7    1
     7     6    75    1
     8     6    76    1
     9     6    77    1
    10     7     9   am
    11     9    10    1
    12    10    11    2
    13    10    43    1
    14    11    14    1
    15    11    15    1
    16    12    13   ar
    17    12    27   ar
    18    12    43    1
    19    13    14    1
    20    13    30   ar
    21    14    17    2
    22    15    16    1
    23    16    17    1
    24    16    18    1
    25    16    22    1
    26    18    19    1
    27    19    20    1
    28    20    21    1
    29    21    22    1
    30    23    24    1
    31    23    88    1
    32    23    89    1
    33    24    25    1
    34    24    26    1
    35    24    90    1
    36    25    91    1
    37    25    92    1
    38    25    93    1
    39    26    94    1
    40    26    95    1
    41    26    96    1
    42    27    28   ar
    43    28    29   ar
    44    29    30   ar
    45    29    31    1
    46    30    33    1
    47    31    32    1
    48    32    33    1
    49    32    35    1
    50    34    97    1
    51    34    98    1
    52    34    99    1
    53    35    61    1
    54    36    37    1
    55    36    60    1
    56    37    38    1
    57    38    39    1
    58    39    40    1
    59    40    41    1
    60    41    42    1
    61    45   100    1
    62    47   101    1
    63    47   102    1
    64    47   103    1
    65    48   104    1
    66    49   105    1
    67    49   106    1
    68    49   107    1
    69    50   108    1
    70    51    59    1
    71    52   109    1
    72    52   110    1
    73    52   111    1
    74    53    54    1
    75    54    55    2
    76    54    56    1
    77    56   112    1
    78    56   113    1
    79    56   114    1
    80    57   115    1
    81    57   116    1
    82    57   117    1
    83    58   118    1
    84    58   119    1
    85    58   120    1
    86    59   121    1
    87    59   122    1
    88    59   123    1
    89    60    61    2
    90     1    47    1
    91     1    62    1
    92     2    63    1
    93     3    64    1
    94     4    65    1
    95     5     6    1
    96     7     8    2
    97     9    78    1
    98    15    79    1
    99    18    80    1
   100    18    81    1
   101    19    82    1
   102    19    83    1
   103    20    23    1
   104    21    84    1
   105    21    85    1
   106    22    86    1
   107    22    87    1
   108    27    45    1
   109    28    34    1
   110    32    58    1
   111    33    46    2
   112    36    51    1
   113    36    66    1
   114    37    52    1
   115    37    67    1
   116    38    53    1
   117    38    68    1
   118    42    48    1
   119    42    72    1
   120    43    44    2
   121    60    73    1
   122    61    74    1
   123    39    69    1
   124    39    57    1
   125    40    70    1
   126    40    50    1
   127    41    71    1
   128    41    49    1
