@<TRIPOS>MOLECULE
*****
 123 128 0 0 0
SMALL
GASTEIGER

@<TRIPOS>ATOM
     1 C         -0.995633   3.813411   1.219809 C.3        1 UNL1     0.0009
     2 C         -2.678761   4.589989   1.2521 C.2        1 UNL1     -0.0787
     3 C         -3.692212   5.417811   0.632684 C.2        1 UNL1     -0.0649
     4 C         -5.274511   5.699036   1.165224 C.2        1 UNL1     -0.0542
     5 C         -6.569813   6.126232   0.782113 C.2        1 UNL1     0.0115
     6 C         -7.38846   6.785356   -0.36187 C.3        1 UNL1     -0.0348
     7 C         -7.818076   5.761838   1.723412 C.2        1 UNL1     0.2441
     8 O         -8.33714   6.568812   2.482288 O.2        1 UNL1     -0.2702
     9 N         -8.439623   4.535807   1.428999 N.am        1 UNL1     -0.2772
     10 C         -7.830853   3.511388   2.116957 C.2        1 UNL1     0.1049
     11 C         -6.736588   3.013018   1.570666 C.2        1 UNL1     0.0801
     12 C         -7.042627   2.845883   4.395803 C.ar        1 UNL1     0.0753
     13 C         -5.793568   2.513514   3.780993 C.ar        1 UNL1     0.0305
     14 C         -5.645315   2.462935   2.328232 C.2        1 UNL1     0.0924
     15 N         -6.22432   3.195938   0.341581 N.pl3        1 UNL1     -0.3170
     16 C         -5.113932   2.293616   0.189575 C.3        1 UNL1     0.1275
     17 N         -4.603531   2.082593   1.594098 N.2        1 UNL1     -0.2557
     18 C         -5.680898   0.950831   -0.261181 C.3        1 UNL1     0.0016
     19 C         -6.492666   1.166443   -1.528514 C.3        1 UNL1     0.0026
     20 N         -5.624329   1.737597   -2.548712 N.3        1 UNL1     -0.3018
     21 C         -4.982608   3.001829   -2.182271 C.3        1 UNL1     0.0026
     22 C         -4.168929   2.760996   -0.909549 C.3        1 UNL1     0.0016
     23 C         -6.212558   1.70455   -3.872924 C.3        1 UNL1     0.0012
     24 C         -6.278908   0.261378   -4.396955 C.3        1 UNL1     -0.0339
     25 C         -6.073707   0.206038   -5.919744 C.3        1 UNL1     -0.0615
     26 C         -5.269125   -0.605404   -3.664966 C.3        1 UNL1     -0.0615
     27 C         -7.208868   2.774531   5.776886 C.ar        1 UNL1     0.1347
     28 C         -6.214668   2.347753   6.639138 C.ar        1 UNL1     0.0342
     29 C         -4.978756   2.072636   6.016245 C.ar        1 UNL1     0.1435
     30 C         -4.786893   2.174457   4.637825 C.ar        1 UNL1     0.0774
     31 O         -3.945012   1.541912   6.705239 O.3        1 UNL1     -0.4436
     32 C         -3.088829   0.980252   5.699077 C.3        1 UNL1     0.3143
     33 C         -3.423325   1.734596   4.428136 C.2        1 UNL1     0.2504
     34 C         -6.394386   2.006663   8.092224 C.3        1 UNL1     -0.0327
     35 O         -1.741641   1.323866   6.045871 O.2        1 UNL1     -0.4528
     36 C         0.426558   -1.492422   4.713384 C.3        1 UNL1     0.0854
     37 C         0.558438   -2.036009   3.238716 C.3        1 UNL1     0.0236
     38 C         2.052705   -2.056058   2.6569 C.3        1 UNL1     0.1131
     39 C         2.947255   -0.754438   2.745421 C.3        1 UNL1     0.0200
     40 C         2.302442   0.740253   2.381343 C.3        1 UNL1     0.0661
     41 C         1.412671   1.126319   0.989628 C.3        1 UNL1     0.0091
     42 C         0.044267   2.323643   0.746141 C.3        1 UNL1     0.0661
     43 C         -8.181933   3.183029   3.506661 C.2        1 UNL1     0.2131
     44 O         -9.348318   3.099764   3.846294 O.2        1 UNL1     -0.2851
     45 O         -8.44223   3.158934   6.29889 O.3        1 UNL1     -0.5056
     46 O         -2.716082   1.944425   3.468119 O.2        1 UNL1     -0.2836
     47 C         0.095134   4.877844   1.515091 C.3        1 UNL1     -0.0566
     48 O         0.627338   2.913991   -0.482937 O.3        1 UNL1     -0.3909
     49 C         1.004614   -0.156346   0.299879 C.3        1 UNL1     -0.0577
     50 O         1.691531   1.313304   3.519817 O.3        1 UNL1     -0.3910
     51 O         1.594739   -0.933802   5.270815 O.3        1 UNL1     -0.3753
     52 C         -0.670789   -1.635896   2.359025 C.3        1 UNL1     -0.0564
     53 O         2.202965   -2.886818   1.4161 O.3        1 UNL1     -0.4608
     54 C         3.250606   -2.818286   0.535371 C.2        1 UNL1     0.3042
     55 O         3.266059   -2.269269   -0.565619 O.2        1 UNL1     -0.2512
     56 C         4.510882   -3.454154   1.049268 C.3        1 UNL1     0.0332
     57 C         3.848211   -0.876997   4.06126 C.3        1 UNL1     -0.0567
     58 C         -3.520224   -0.495343   5.531603 C.3        1 UNL1     0.0210
     59 C         2.714439   -0.881685   4.387967 C.3        1 UNL1     0.0372
     60 C         -0.664989   -0.502706   4.923498 C.2        1 UNL1     -0.0208
     61 C         -0.666929   0.654263   5.586947 C.2        1 UNL1     0.0882
     62 H         -1.223476   3.325463   2.175165 H        1 UNL1     0.0365
     63 H         -3.023896   4.28679   2.242767 H        1 UNL1     0.0576
     64 H         -3.562586   5.825626   -0.372299 H        1 UNL1     0.0615
     65 H         -5.272679   5.329566   2.194288 H        1 UNL1     0.0622
     66 H         0.152395   -2.374408   5.309187 H        1 UNL1     0.0645
     67 H         0.344181   -3.114998   3.330564 H        1 UNL1     0.0362
     68 H         2.511873   -2.773616   3.353892 H        1 UNL1     0.0741
     69 H         3.759472   -0.841442   2.036096 H        1 UNL1     0.0359
     70 H         3.234239   1.321871   2.245195 H        1 UNL1     0.0600
     71 H         2.229615   1.477503   0.329152 H        1 UNL1     0.0348
     72 H         0.555276   2.630938   1.67013 H        1 UNL1     0.0602
     73 H         -1.575499   -0.902778   4.551795 H        1 UNL1     0.0628
     74 H         0.229463   1.159451   5.948202 H        1 UNL1     0.1022
     75 H         -6.865739   7.695137   -0.744094 H        1 UNL1     0.0279
     76 H         -7.521817   6.194801   -1.26549 H        1 UNL1     0.0279
     77 H         -8.33977   7.212653   -0.012403 H        1 UNL1     0.0279
     78 H         -8.346812   4.335169   0.435416 H        1 UNL1     0.1553
     79 H         -6.754589   3.541556   -0.437069 H        1 UNL1     0.1484
     80 H         -4.852964   0.251683   -0.42995 H        1 UNL1     0.0317
     81 H         -6.309554   0.50956   0.519666 H        1 UNL1     0.0317
     82 H         -7.366815   1.809151   -1.347676 H        1 UNL1     0.0428
     83 H         -6.889133   0.196874   -1.831501 H        1 UNL1     0.0428
     84 H         -4.274964   3.368159   -2.932507 H        1 UNL1     0.0428
     85 H         -5.712519   3.817166   -2.083418 H        1 UNL1     0.0428
     86 H         -3.611051   3.664552   -0.747233 H        1 UNL1     0.0317
     87 H         -3.389983   2.012328   -1.098853 H        1 UNL1     0.0317
     88 H         -7.235023   2.098101   -3.802365 H        1 UNL1     0.0429
     89 H         -5.665388   2.353684   -4.568628 H        1 UNL1     0.0429
     90 H         -7.262854   -0.161326   -4.161617 H        1 UNL1     0.0308
     91 H         -5.234246   0.834917   -6.231061 H        1 UNL1     0.0233
     92 H         -5.894086   -0.82032   -6.248277 H        1 UNL1     0.0233
     93 H         -6.954412   0.554424   -6.472755 H        1 UNL1     0.0233
     94 H         -5.029447   -1.492051   -4.261832 H        1 UNL1     0.0233
     95 H         -4.343008   -0.046196   -3.505106 H        1 UNL1     0.0233
     96 H         -5.654248   -0.934932   -2.695915 H        1 UNL1     0.0233
     97 H         -6.564666   2.890234   8.70012 H        1 UNL1     0.0280
     98 H         -7.261579   1.3547   8.260081 H        1 UNL1     0.0280
     99 H         -5.490593   1.4986   8.466559 H        1 UNL1     0.0280
     100 H         -8.627628   2.818664   7.156484 H        1 UNL1     0.2922
     101 H         0.463226   4.75438   2.533384 H        1 UNL1     0.0236
     102 H         -0.236984   5.897168   1.321029 H        1 UNL1     0.0236
     103 H         0.98548   4.746251   0.877784 H        1 UNL1     0.0236
     104 H         1.330936   2.311561   -0.794385 H        1 UNL1     0.2098
     105 H         1.584281   -0.392324   -0.589004 H        1 UNL1     0.0234
     106 H         0.945122   -1.026119   0.954005 H        1 UNL1     0.0234
     107 H         -0.0   0.0   0.0 H        1 UNL1     0.0234
     108 H         0.85022   1.713603   3.227029 H        1 UNL1     0.2098
     109 H         -0.47039   -1.755642   1.285147 H        1 UNL1     0.0234
     110 H         -1.584557   -2.178632   2.623995 H        1 UNL1     0.0234
     111 H         -0.939412   -0.579859   2.495316 H        1 UNL1     0.0234
     112 H         5.310233   -3.346719   0.30978 H        1 UNL1     0.0342
     113 H         4.81235   -3.04562   2.012628 H        1 UNL1     0.0342
     114 H         4.32191   -4.527644   1.187372 H        1 UNL1     0.0342
     115 H         4.900084   -1.081399   3.818425 H        1 UNL1     0.0234
     116 H         3.824647   0.008527   4.699493 H        1 UNL1     0.0234
     117 H         3.599363   -1.752915   4.684787 H        1 UNL1     0.0234
     118 H         -4.442345   -0.724103   6.094068 H        1 UNL1     0.0309
     119 H         -3.657226   -0.786813   4.48543 H        1 UNL1     0.0309
     120 H         -2.789423   -1.196864   5.948622 H        1 UNL1     0.0309
     121 H         3.616611   -0.88661   4.999046 H        1 UNL1     0.0524
     122 H         2.761384   -1.757574   3.719646 H        1 UNL1     0.0524
     123 H         2.675473   0.020676   3.784378 H        1 UNL1     0.0524
@<TRIPOS>BOND
     1     1     2    1
     2     1    42    1
     3     2     3    2
     4     3     4    1
     5     4     5    2
     6     5     7    1
     7     6    75    1
     8     6    76    1
     9     6    77    1
    10     7     9   am
    11     9    10    1
    12    10    11    2
    13    10    43    1
    14    11    14    1
    15    11    15    1
    16    12    13   ar
    17    12    27   ar
    18    12    43    1
    19    13    14    1
    20    13    30   ar
    21    14    17    2
    22    15    16    1
    23    16    17    1
    24    16    18    1
    25    16    22    1
    26    18    19    1
    27    19    20    1
    28    20    21    1
    29    21    22    1
    30    23    24    1
    31    23    88    1
    32    23    89    1
    33    24    25    1
    34    24    26    1
    35    24    90    1
    36    25    91    1
    37    25    92    1
    38    25    93    1
    39    26    94    1
    40    26    95    1
    41    26    96    1
    42    27    28   ar
    43    28    29   ar
    44    29    30   ar
    45    29    31    1
    46    30    33    1
    47    31    32    1
    48    32    33    1
    49    32    35    1
    50    34    97    1
    51    34    98    1
    52    34    99    1
    53    35    61    1
    54    36    37    1
    55    36    60    1
    56    37    38    1
    57    38    39    1
    58    39    40    1
    59    40    41    1
    60    41    42    1
    61    45   100    1
    62    47   101    1
    63    47   102    1
    64    47   103    1
    65    48   104    1
    66    49   105    1
    67    49   106    1
    68    49   107    1
    69    50   108    1
    70    51    59    1
    71    52   109    1
    72    52   110    1
    73    52   111    1
    74    53    54    1
    75    54    55    2
    76    54    56    1
    77    56   112    1
    78    56   113    1
    79    56   114    1
    80    57   115    1
    81    57   116    1
    82    57   117    1
    83    58   118    1
    84    58   119    1
    85    58   120    1
    86    59   121    1
    87    59   122    1
    88    59   123    1
    89    60    61    2
    90     1    47    1
    91     1    62    1
    92     2    63    1
    93     3    64    1
    94     4    65    1
    95     5     6    1
    96     7     8    2
    97     9    78    1
    98    15    79    1
    99    18    80    1
   100    18    81    1
   101    19    82    1
   102    19    83    1
   103    20    23    1
   104    21    84    1
   105    21    85    1
   106    22    86    1
   107    22    87    1
   108    27    45    1
   109    28    34    1
   110    32    58    1
   111    33    46    2
   112    36    51    1
   113    36    66    1
   114    37    52    1
   115    37    67    1
   116    38    53    1
   117    38    68    1
   118    42    48    1
   119    42    72    1
   120    43    44    2
   121    60    73    1
   122    61    74    1
   123    39    69    1
   124    39    57    1
   125    40    70    1
   126    40    50    1
   127    41    71    1
   128    41    49    1
