@<TRIPOS>MOLECULE
*****
 123 128 0 0 0
SMALL
GASTEIGER

@<TRIPOS>ATOM
     1 C         5.168778   1.741553   0.499957 C.3        1 UNL1     0.0009
     2 C         6.60806   2.545541   -0.348045 C.2        1 UNL1     -0.0787
     3 C         7.890929   2.445471   -1.011581 C.2        1 UNL1     -0.0649
     4 C         8.771423   3.67928   -1.765771 C.2        1 UNL1     -0.0542
     5 C         9.793462   3.970392   -2.702664 C.2        1 UNL1     0.0115
     6 C         10.922239   3.343267   -3.566319 C.3        1 UNL1     -0.0348
     7 C         9.891948   5.453461   -3.309127 C.2        1 UNL1     0.2441
     8 O         10.716359   6.273964   -2.930118 O.2        1 UNL1     -0.2702
     9 N         9.144017   5.6614   -4.481096 N.am        1 UNL1     -0.2772
     10 C         7.861322   6.049936   -4.169557 C.2        1 UNL1     0.1049
     11 C         7.013656   5.079755   -3.878984 C.2        1 UNL1     0.0801
     12 C         6.562823   7.658555   -2.761161 C.ar        1 UNL1     0.0753
     13 C         5.801397   6.531761   -2.314874 C.ar        1 UNL1     0.0305
     14 C         5.917564   5.225841   -2.959954 C.2        1 UNL1     0.0924
     15 N         7.134651   3.75059   -4.037756 N.pl3        1 UNL1     -0.3170
     16 C         5.863405   3.153258   -3.725694 C.3        1 UNL1     0.1275
     17 N         5.226701   4.109481   -2.746935 N.2        1 UNL1     -0.2557
     18 C         5.012795   3.213439   -4.990819 C.3        1 UNL1     0.0016
     19 C         5.768619   2.528176   -6.118087 C.3        1 UNL1     0.0026
     20 N         6.036138   1.149723   -5.731657 N.3        1 UNL1     -0.3018
     21 C         6.797154   0.988344   -4.49102 C.3        1 UNL1     0.0026
     22 C         6.017488   1.680068   -3.371407 C.3        1 UNL1     0.0016
     23 C         6.481363   0.329458   -6.840523 C.3        1 UNL1     0.0012
     24 C         5.326116   0.077912   -7.822299 C.3        1 UNL1     -0.0339
     25 C         5.350708   1.079919   -8.988247 C.3        1 UNL1     -0.0615
     26 C         5.366816   -1.357266   -8.317665 C.3        1 UNL1     -0.0615
     27 C         6.359054   8.926586   -2.222 C.ar        1 UNL1     0.1347
     28 C         5.398749   9.197584   -1.263655 C.ar        1 UNL1     0.0342
     29 C         4.694787   8.064175   -0.804322 C.ar        1 UNL1     0.1435
     30 C         4.91326   6.781793   -1.309283 C.ar        1 UNL1     0.0774
     31 O         3.652509   8.1793   0.047387 O.3        1 UNL1     -0.4436
     32 C         2.929316   6.947499   -0.095895 C.3        1 UNL1     0.3143
     33 C         3.942098   5.952902   -0.626238 C.2        1 UNL1     0.2504
     34 C         4.953112   10.564362   -0.823855 C.3        1 UNL1     -0.0327
     35 O         2.565822   6.51143   1.219768 O.2        1 UNL1     -0.4528
     36 C         -0.679299   4.583837   0.817698 C.3        1 UNL1     0.0854
     37 C         -0.984881   3.323609   -0.080059 C.3        1 UNL1     0.0236
     38 C         -1.588571   2.063494   0.70697 C.3        1 UNL1     0.1131
     39 C         -0.865778   1.531644   2.00965 C.3        1 UNL1     0.0200
     40 C         0.795133   1.383732   2.053647 C.3        1 UNL1     0.0661
     41 C         1.755383   0.613426   0.886531 C.3        1 UNL1     0.0091
     42 C         3.464439   0.973494   0.325389 C.3        1 UNL1     0.0661
     43 C         7.514466   7.449394   -3.880486 C.2        1 UNL1     0.2131
     44 O         7.916847   8.346833   -4.59842 O.2        1 UNL1     -0.2851
     45 O         7.173573   9.96049   -2.679207 O.3        1 UNL1     -0.5056
     46 O         3.956147   4.749358   -0.495323 O.2        1 UNL1     -0.2836
     47 C         5.562092   1.311647   1.938869 C.3        1 UNL1     -0.0566
     48 O         3.910848   -0.438242   0.408065 O.3        1 UNL1     -0.3909
     49 C         0.922964   0.381908   -0.354828 C.3        1 UNL1     -0.0577
     50 O         1.396404   2.600774   2.447353 O.3        1 UNL1     -0.3910
     51 O         -0.806013   4.394475   2.208927 O.3        1 UNL1     -0.3753
     52 C         0.061292   3.161534   -1.230799 C.3        1 UNL1     -0.0564
     53 O         -2.191134   1.025284   -0.193787 O.3        1 UNL1     -0.4608
     54 C         -2.415879   -0.284354   0.141274 C.2        1 UNL1     0.3042
     55 O         -1.844372   -1.278202   -0.305363 O.2        1 UNL1     -0.2512
     56 C         -3.447333   -0.460886   1.219075 C.3        1 UNL1     0.0332
     57 C         -1.587981   2.201791   3.269611 C.3        1 UNL1     -0.0567
     58 C         1.856306   7.194017   -1.181901 C.3        1 UNL1     0.0210
     59 C         -1.157404   5.565978   2.943753 C.3        1 UNL1     0.0372
     60 C         0.650982   5.210998   0.589267 C.2        1 UNL1     -0.0208
     61 C         1.563068   5.645013   1.460171 C.2        1 UNL1     0.0882
     62 H         4.694119   2.726413   0.586324 H        1 UNL1     0.0365
     63 H         6.343142   3.599731   -0.243294 H        1 UNL1     0.0576
     64 H         8.347573   1.477946   -1.231759 H        1 UNL1     0.0615
     65 H         8.285065   4.595407   -1.419867 H        1 UNL1     0.0622
     66 H         -1.422357   5.331397   0.506144 H        1 UNL1     0.0645
     67 H         -1.848953   3.634149   -0.692843 H        1 UNL1     0.0362
     68 H         -2.535607   2.501761   1.057065 H        1 UNL1     0.0741
     69 H         -1.199076   0.521041   2.204594 H        1 UNL1     0.0359
     70 H         0.904477   0.723334   2.93511 H        1 UNL1     0.0600
     71 H         1.796785   -0.407756   1.31365 H        1 UNL1     0.0348
     72 H         3.357604   1.461953   1.304833 H        1 UNL1     0.0602
     73 H         0.770907   5.40797   -0.447106 H        1 UNL1     0.0628
     74 H         1.543418   5.434486   2.529998 H        1 UNL1     0.1022
     75 H         10.96488   2.237942   -3.413114 H        1 UNL1     0.0279
     76 H         10.810542   3.426105   -4.645083 H        1 UNL1     0.0279
     77 H         11.927197   3.646568   -3.238038 H        1 UNL1     0.0279
     78 H         9.081655   4.791485   -5.005916 H        1 UNL1     0.1553
     79 H         7.800347   3.321582   -4.653982 H        1 UNL1     0.1484
     80 H         4.050486   2.723902   -4.798252 H        1 UNL1     0.0317
     81 H         4.788127   4.250486   -5.262312 H        1 UNL1     0.0317
     82 H         6.700458   3.058119   -6.364561 H        1 UNL1     0.0428
     83 H         5.145049   2.584118   -7.010881 H        1 UNL1     0.0428
     84 H         6.91546   -0.054746   -4.181539 H        1 UNL1     0.0428
     85 H         7.827946   1.354891   -4.593142 H        1 UNL1     0.0428
     86 H         6.532022   1.429064   -2.462431 H        1 UNL1     0.0317
     87 H         5.037151   1.203848   -3.247917 H        1 UNL1     0.0317
     88 H         7.276902   0.871431   -7.368422 H        1 UNL1     0.0429
     89 H         6.914843   -0.615549   -6.488627 H        1 UNL1     0.0429
     90 H         4.373185   0.184305   -7.290496 H        1 UNL1     0.0308
     91 H         6.29964   1.035312   -9.531055 H        1 UNL1     0.0233
     92 H         4.530572   0.884337   -9.683036 H        1 UNL1     0.0233
     93 H         5.225423   2.116032   -8.651188 H        1 UNL1     0.0233
     94 H         4.670613   -1.488361   -9.1531 H        1 UNL1     0.0233
     95 H         6.371393   -1.600996   -8.674573 H        1 UNL1     0.0233
     96 H         5.093132   -2.060525   -7.526152 H        1 UNL1     0.0233
     97 H         4.158458   10.5158   -0.085344 H        1 UNL1     0.0280
     98 H         5.765888   11.133294   -0.353783 H        1 UNL1     0.0280
     99 H         4.581706   11.129332   -1.694465 H        1 UNL1     0.0280
     100 H         6.708156   10.71147   -3.003304 H        1 UNL1     0.2922
     101 H         4.697811   0.879299   2.442604 H        1 UNL1     0.0236
     102 H         6.013049   2.116412   2.518502 H        1 UNL1     0.0236
     103 H         6.317193   0.507897   1.93913 H        1 UNL1     0.0236
     104 H         4.328731   -0.564732   1.282333 H        1 UNL1     0.2098
     105 H         0.712488   1.280991   -0.928553 H        1 UNL1     0.0234
     106 H         1.292382   -0.406652   -1.010291 H        1 UNL1     0.0234
     107 H         0.0   -0.0   0.0 H        1 UNL1     0.0234
     108 H         1.197568   3.259966   1.75475 H        1 UNL1     0.2098
     109 H         1.085228   3.045864   -0.848846 H        1 UNL1     0.0234
     110 H         -0.171601   2.335169   -1.910965 H        1 UNL1     0.0234
     111 H         0.085393   4.044563   -1.883199 H        1 UNL1     0.0234
     112 H         -3.574578   -1.524632   1.441783 H        1 UNL1     0.0342
     113 H         -3.19932   0.099776   2.119069 H        1 UNL1     0.0342
     114 H         -4.40606   -0.078639   0.842388 H        1 UNL1     0.0342
     115 H         -2.652611   1.93489   3.319767 H        1 UNL1     0.0234
     116 H         -1.138425   1.940714   4.229708 H        1 UNL1     0.0234
     117 H         -1.646776   3.302164   3.209082 H        1 UNL1     0.0234
     118 H         0.955237   7.682257   -0.771167 H        1 UNL1     0.0309
     119 H         2.227937   7.781375   -2.027539 H        1 UNL1     0.0309
     120 H         1.46712   6.262565   -1.607384 H        1 UNL1     0.0309
     121 H         -0.357677   6.293323   2.806777 H        1 UNL1     0.0524
     122 H         -2.090443   6.025527   2.577295 H        1 UNL1     0.0524
     123 H         -1.271597   5.328454   3.99762 H        1 UNL1     0.0524
@<TRIPOS>BOND
     1     1     2    1
     2     1    42    1
     3     2     3    2
     4     3     4    1
     5     4     5    2
     6     5     7    1
     7     6    75    1
     8     6    76    1
     9     6    77    1
    10     7     9   am
    11     9    10    1
    12    10    11    2
    13    10    43    1
    14    11    14    1
    15    11    15    1
    16    12    13   ar
    17    12    27   ar
    18    12    43    1
    19    13    14    1
    20    13    30   ar
    21    14    17    2
    22    15    16    1
    23    16    17    1
    24    16    18    1
    25    16    22    1
    26    18    19    1
    27    19    20    1
    28    20    21    1
    29    21    22    1
    30    23    24    1
    31    23    88    1
    32    23    89    1
    33    24    25    1
    34    24    26    1
    35    24    90    1
    36    25    91    1
    37    25    92    1
    38    25    93    1
    39    26    94    1
    40    26    95    1
    41    26    96    1
    42    27    28   ar
    43    28    29   ar
    44    29    30   ar
    45    29    31    1
    46    30    33    1
    47    31    32    1
    48    32    33    1
    49    32    35    1
    50    34    97    1
    51    34    98    1
    52    34    99    1
    53    35    61    1
    54    36    37    1
    55    36    60    1
    56    37    38    1
    57    38    39    1
    58    39    40    1
    59    40    41    1
    60    41    42    1
    61    45   100    1
    62    47   101    1
    63    47   102    1
    64    47   103    1
    65    48   104    1
    66    49   105    1
    67    49   106    1
    68    49   107    1
    69    50   108    1
    70    51    59    1
    71    52   109    1
    72    52   110    1
    73    52   111    1
    74    53    54    1
    75    54    55    2
    76    54    56    1
    77    56   112    1
    78    56   113    1
    79    56   114    1
    80    57   115    1
    81    57   116    1
    82    57   117    1
    83    58   118    1
    84    58   119    1
    85    58   120    1
    86    59   121    1
    87    59   122    1
    88    59   123    1
    89    60    61    2
    90     1    47    1
    91     1    62    1
    92     2    63    1
    93     3    64    1
    94     4    65    1
    95     5     6    1
    96     7     8    2
    97     9    78    1
    98    15    79    1
    99    18    80    1
   100    18    81    1
   101    19    82    1
   102    19    83    1
   103    20    23    1
   104    21    84    1
   105    21    85    1
   106    22    86    1
   107    22    87    1
   108    27    45    1
   109    28    34    1
   110    32    58    1
   111    33    46    2
   112    36    51    1
   113    36    66    1
   114    37    52    1
   115    37    67    1
   116    38    53    1
   117    38    68    1
   118    42    48    1
   119    42    72    1
   120    43    44    2
   121    60    73    1
   122    61    74    1
   123    39    69    1
   124    39    57    1
   125    40    70    1
   126    40    50    1
   127    41    71    1
   128    41    49    1
