@<TRIPOS>MOLECULE
*****
 123 128 0 0 0
SMALL
GASTEIGER

@<TRIPOS>ATOM
     1 C         1.231319   -3.75252   -2.77516 C.3        1 UNL1     0.0009
     2 C         2.210327   -3.920448   -4.340529 C.2        1 UNL1     -0.0787
     3 C         2.283277   -4.259667   -5.746109 C.2        1 UNL1     -0.0649
     4 C         3.600445   -4.076174   -6.793847 C.2        1 UNL1     -0.0542
     5 C         4.001734   -3.984724   -8.149459 C.2        1 UNL1     0.0115
     6 C         3.519539   -4.151933   -9.616718 C.3        1 UNL1     -0.0348
     7 C         5.445956   -3.373596   -8.492587 C.2        1 UNL1     0.2441
     8 O         6.408479   -4.067465   -8.790277 O.2        1 UNL1     -0.2702
     9 N         5.465993   -1.981001   -8.683448 N.am        1 UNL1     -0.2772
     10 C         5.658145   -1.334641   -7.484023 C.2        1 UNL1     0.1049
     11 C         4.580815   -1.151629   -6.742343 C.2        1 UNL1     0.0801
     12 C         7.109589   -1.323983   -5.446739 C.ar        1 UNL1     0.0753
     13 C         5.900381   -1.336533   -4.681058 C.ar        1 UNL1     0.0305
     14 C         4.597343   -1.117804   -5.304998 C.2        1 UNL1     0.0924
     15 N         3.282121   -1.305308   -7.05267 N.pl3        1 UNL1     -0.3170
     16 C         2.504768   -0.811657   -5.9471 C.3        1 UNL1     0.1275
     17 N         3.397145   -0.998621   -4.744422 N.2        1 UNL1     -0.2557
     18 C         2.357528   0.695231   -6.135006 C.3        1 UNL1     0.0016
     19 C         1.743332   0.957286   -7.500906 C.3        1 UNL1     0.0026
     20 N         0.449461   0.292075   -7.567396 N.3        1 UNL1     -0.3018
     21 C         0.481154   -1.15374   -7.337219 C.3        1 UNL1     0.0026
     22 C         1.097441   -1.393775   -5.957918 C.3        1 UNL1     0.0016
     23 C         -0.347029   0.719871   -8.700198 C.3        1 UNL1     0.0012
     24 C         -0.835224   -0.49501   -9.504864 C.3        1 UNL1     -0.0339
     25 C         -1.34102   -0.081297   -10.89665 C.3        1 UNL1     -0.0615
     26 C         0.267242   -1.535589   -9.59729 C.3        1 UNL1     -0.0615
     27 C         8.355349   -1.412343   -4.829978 C.ar        1 UNL1     0.1347
     28 C         8.519073   -1.476919   -3.457726 C.ar        1 UNL1     0.0342
     29 C         7.313359   -1.537155   -2.727117 C.ar        1 UNL1     0.1435
     30 C         6.0577   -1.486079   -3.333689 C.ar        1 UNL1     0.0774
     31 O         7.304428   -1.491785   -1.37698 O.3        1 UNL1     -0.4436
     32 C         5.96586   -1.100743   -1.036107 C.3        1 UNL1     0.3143
     33 C         5.120953   -1.498284   -2.22955 C.2        1 UNL1     0.2504
     34 C         9.817572   -1.320696   -2.71638 C.3        1 UNL1     -0.0327
     35 O         5.548956   -1.921344   0.0621 O.2        1 UNL1     -0.4528
     36 C         3.102507   0.181437   2.062421 C.3        1 UNL1     0.0854
     37 C         1.762471   0.867802   1.592603 C.3        1 UNL1     0.0236
     38 C         0.465977   0.477996   2.452196 C.3        1 UNL1     0.1131
     39 C         0.12983   -1.044431   2.719572 C.3        1 UNL1     0.0200
     40 C         0.255339   -2.165762   1.491036 C.3        1 UNL1     0.0661
     41 C         -0.411728   -2.017495   -0.06159 C.3        1 UNL1     0.0091
     42 C         0.18916   -2.63975   -1.679346 C.3        1 UNL1     0.0661
     43 C         6.99663   -1.123634   -6.912808 C.2        1 UNL1     0.2131
     44 O         7.90695   -0.709882   -7.607692 O.2        1 UNL1     -0.2851
     45 O         9.481031   -1.439327   -5.650678 O.3        1 UNL1     -0.5056
     46 O         3.944488   -1.782776   -2.258658 O.2        1 UNL1     -0.2836
     47 C         0.9497   -5.150895   -2.162608 C.3        1 UNL1     -0.0566
     48 O         -1.125078   -3.196182   -2.082183 O.3        1 UNL1     -0.3909
     49 C         -0.842144   -0.583061   -0.27286 C.3        1 UNL1     -0.0577
     50 O         1.573257   -2.669102   1.404637 O.3        1 UNL1     -0.3910
     51 O         2.971126   -0.81178   3.054233 O.3        1 UNL1     -0.3753
     52 C         1.709499   1.038013   0.039164 C.3        1 UNL1     -0.0564
     53 O         -0.703538   1.389958   2.222227 O.3        1 UNL1     -0.4608
     54 C         -2.022464   1.035409   2.334743 C.2        1 UNL1     0.3042
     55 O         -2.83079   0.86622   1.4227 O.2        1 UNL1     -0.2512
     56 C         -2.45928   0.785068   3.7501 C.3        1 UNL1     0.0332
     57 C         0.741796   -1.430132   4.146074 C.3        1 UNL1     -0.0567
     58 C         5.975968   0.441582   -0.923593 C.3        1 UNL1     0.0210
     59 C         1.903336   -0.600161   3.97668 C.3        1 UNL1     0.0372
     60 C         3.923358   -0.408657   0.970106 C.2        1 UNL1     -0.0208
     61 C         4.546032   -1.585747   0.896069 C.2        1 UNL1     0.0882
     62 H         2.129579   -3.367903   -2.277254 H        1 UNL1     0.0365
     63 H         3.211849   -3.674144   -3.9817 H        1 UNL1     0.0576
     64 H         1.3919   -4.52949   -6.316854 H        1 UNL1     0.0615
     65 H         4.443212   -3.889424   -6.122765 H        1 UNL1     0.0622
     66 H         3.701852   1.002889   2.479613 H        1 UNL1     0.0645
     67 H         1.895233   1.929337   1.864771 H        1 UNL1     0.0362
     68 H         0.76356   0.887132   3.429731 H        1 UNL1     0.0741
     69 H         -0.909269   -1.125693   3.009532 H        1 UNL1     0.0359
     70 H         -0.329689   -2.996277   1.930407 H        1 UNL1     0.0600
     71 H         -1.387964   -2.515593   0.099093 H        1 UNL1     0.0348
     72 H         0.706451   -3.236243   -0.913891 H        1 UNL1     0.0602
     73 H         4.08045   0.32305   0.216996 H        1 UNL1     0.0628
     74 H         4.393638   -2.409004   1.594825 H        1 UNL1     0.1022
     75 H         2.407002   -4.239933   -9.656124 H        1 UNL1     0.0279
     76 H         3.712576   -3.318759   -10.28875 H        1 UNL1     0.0279
     77 H         3.828621   -5.110185   -10.059349 H        1 UNL1     0.0279
     78 H         4.570202   -1.674007   -9.056798 H        1 UNL1     0.1553
     79 H         2.933637   -1.3322   -7.993292 H        1 UNL1     0.1484
     80 H         1.729892   1.096268   -5.330017 H        1 UNL1     0.0317
     81 H         3.3282   1.196248   -6.054821 H        1 UNL1     0.0317
     82 H         2.402914   0.622314   -8.314943 H        1 UNL1     0.0428
     83 H         1.648929   2.037632   -7.614883 H        1 UNL1     0.0428
     84 H         -0.510621   -1.615932   -7.313291 H        1 UNL1     0.0428
     85 H         1.003615   -1.684884   -8.144831 H        1 UNL1     0.0428
     86 H         0.982879   -2.444967   -5.768554 H        1 UNL1     0.0317
     87 H         0.476248   -0.927233   -5.18361 H        1 UNL1     0.0317
     88 H         -1.222648   1.260302   -8.317418 H        1 UNL1     0.0429
     89 H         0.209317   1.419286   -9.337436 H        1 UNL1     0.0429
     90 H         -1.657753   -0.977361   -8.963573 H        1 UNL1     0.0308
     91 H         -2.315663   0.412055   -10.835182 H        1 UNL1     0.0233
     92 H         -0.629182   0.590152   -11.382502 H        1 UNL1     0.0233
     93 H         -1.460526   -0.939057   -11.569554 H        1 UNL1     0.0233
     94 H         1.18884   -1.150396   -9.147712 H        1 UNL1     0.0233
     95 H         -0.023205   -2.437205   -9.050762 H        1 UNL1     0.0233
     96 H         0.475932   -1.804619   -10.636539 H        1 UNL1     0.0233
     97 H         9.799926   -0.473061   -2.037827 H        1 UNL1     0.0280
     98 H         10.0483   -2.197021   -2.096642 H        1 UNL1     0.0280
     99 H         10.63801   -1.169538   -3.436885 H        1 UNL1     0.0280
     100 H         9.476052   -0.802105   -6.343171 H        1 UNL1     0.2922
     101 H         1.655211   -5.87746   -2.565119 H        1 UNL1     0.0236
     102 H         -0.083844   -5.472672   -2.286016 H        1 UNL1     0.0236
     103 H         1.1212   -5.168038   -1.073348 H        1 UNL1     0.0236
     104 H         -0.978271   -3.76212   -2.86521 H        1 UNL1     0.2098
     105 H         -1.097874   -0.337628   -1.300565 H        1 UNL1     0.0234
     106 H         -1.623812   -0.237827   0.403702 H        1 UNL1     0.0234
     107 H         0.0   0.0   0.0 H        1 UNL1     0.0234
     108 H         1.983792   -2.27275   0.612088 H        1 UNL1     0.2098
     109 H         0.693417   0.908748   -0.359056 H        1 UNL1     0.0234
     110 H         2.118235   1.994828   -0.303154 H        1 UNL1     0.0234
     111 H         2.326696   0.286898   -0.471562 H        1 UNL1     0.0234
     112 H         -3.25014   0.029032   3.767298 H        1 UNL1     0.0342
     113 H         -1.627439   0.494954   4.390193 H        1 UNL1     0.0342
     114 H         -2.877367   1.718944   4.150403 H        1 UNL1     0.0342
     115 H         1.712938   -1.935108   4.05083 H        1 UNL1     0.0234
     116 H         0.878799   -0.578449   4.815338 H        1 UNL1     0.0234
     117 H         0.155697   -2.195081   4.683923 H        1 UNL1     0.0234
     118 H         6.42174   0.785073   0.026306 H        1 UNL1     0.0309
     119 H         6.489955   0.929836   -1.757636 H        1 UNL1     0.0309
     120 H         4.967114   0.867793   -0.897832 H        1 UNL1     0.0309
     121 H         1.083314   -0.134611   3.430618 H        1 UNL1     0.0524
     122 H         1.524906   -1.544414   4.402374 H        1 UNL1     0.0524
     123 H         2.229001   0.046269   4.78672 H        1 UNL1     0.0524
@<TRIPOS>BOND
     1     1     2    1
     2     1    42    1
     3     2     3    2
     4     3     4    1
     5     4     5    2
     6     5     7    1
     7     6    75    1
     8     6    76    1
     9     6    77    1
    10     7     9   am
    11     9    10    1
    12    10    11    2
    13    10    43    1
    14    11    14    1
    15    11    15    1
    16    12    13   ar
    17    12    27   ar
    18    12    43    1
    19    13    14    1
    20    13    30   ar
    21    14    17    2
    22    15    16    1
    23    16    17    1
    24    16    18    1
    25    16    22    1
    26    18    19    1
    27    19    20    1
    28    20    21    1
    29    21    22    1
    30    23    24    1
    31    23    88    1
    32    23    89    1
    33    24    25    1
    34    24    26    1
    35    24    90    1
    36    25    91    1
    37    25    92    1
    38    25    93    1
    39    26    94    1
    40    26    95    1
    41    26    96    1
    42    27    28   ar
    43    28    29   ar
    44    29    30   ar
    45    29    31    1
    46    30    33    1
    47    31    32    1
    48    32    33    1
    49    32    35    1
    50    34    97    1
    51    34    98    1
    52    34    99    1
    53    35    61    1
    54    36    37    1
    55    36    60    1
    56    37    38    1
    57    38    39    1
    58    39    40    1
    59    40    41    1
    60    41    42    1
    61    45   100    1
    62    47   101    1
    63    47   102    1
    64    47   103    1
    65    48   104    1
    66    49   105    1
    67    49   106    1
    68    49   107    1
    69    50   108    1
    70    51    59    1
    71    52   109    1
    72    52   110    1
    73    52   111    1
    74    53    54    1
    75    54    55    2
    76    54    56    1
    77    56   112    1
    78    56   113    1
    79    56   114    1
    80    57   115    1
    81    57   116    1
    82    57   117    1
    83    58   118    1
    84    58   119    1
    85    58   120    1
    86    59   121    1
    87    59   122    1
    88    59   123    1
    89    60    61    2
    90     1    47    1
    91     1    62    1
    92     2    63    1
    93     3    64    1
    94     4    65    1
    95     5     6    1
    96     7     8    2
    97     9    78    1
    98    15    79    1
    99    18    80    1
   100    18    81    1
   101    19    82    1
   102    19    83    1
   103    20    23    1
   104    21    84    1
   105    21    85    1
   106    22    86    1
   107    22    87    1
   108    27    45    1
   109    28    34    1
   110    32    58    1
   111    33    46    2
   112    36    51    1
   113    36    66    1
   114    37    52    1
   115    37    67    1
   116    38    53    1
   117    38    68    1
   118    42    48    1
   119    42    72    1
   120    43    44    2
   121    60    73    1
   122    61    74    1
   123    39    69    1
   124    39    57    1
   125    40    70    1
   126    40    50    1
   127    41    71    1
   128    41    49    1
