@<TRIPOS>MOLECULE
*****
 123 128 0 0 0
SMALL
GASTEIGER

@<TRIPOS>ATOM
     1 C         5.27975   0.995517   0.749323 C.3        1 UNL1     0.0009
     2 C         6.942598   1.172927   -0.050989 C.2        1 UNL1     -0.0787
     3 C         8.209902   0.600822   -0.454328 C.2        1 UNL1     -0.0649
     4 C         9.435247   1.327043   -1.369474 C.2        1 UNL1     -0.0542
     5 C         10.573628   1.092291   -2.179448 C.2        1 UNL1     0.0115
     6 C         11.575915   0.004071   -2.653287 C.3        1 UNL1     -0.0348
     7 C         11.096025   2.264532   -3.143783 C.2        1 UNL1     0.2441
     8 O         12.066099   2.961243   -2.879066 O.2        1 UNL1     -0.2702
     9 N         10.527801   2.266564   -4.429578 N.am        1 UNL1     -0.2772
     10 C         9.363742   3.000185   -4.438995 C.2        1 UNL1     0.1049
     11 C         8.276315   2.37164   -4.030759 C.2        1 UNL1     0.0801
     12 C         8.400276   5.200765   -3.741489 C.ar        1 UNL1     0.0753
     13 C         7.343001   4.455076   -3.12934 C.ar        1 UNL1     0.0305
     14 C         7.178898   3.022936   -3.36829 C.2        1 UNL1     0.0924
     15 N         8.069569   1.063618   -3.800842 N.pl3        1 UNL1     -0.3170
     16 C         6.666644   0.879773   -3.539578 C.3        1 UNL1     0.1275
     17 N         6.212124   2.201198   -2.969516 N.2        1 UNL1     -0.2557
     18 C         5.969964   0.738869   -4.889572 C.3        1 UNL1     0.0016
     19 C         6.620584   -0.401755   -5.655901 C.3        1 UNL1     0.0026
     20 N         6.496116   -1.622879   -4.872068 N.3        1 UNL1     -0.3018
     21 C         7.082902   -1.563816   -3.531709 C.3        1 UNL1     0.0026
     22 C         6.411597   -0.414319   -2.778117 C.3        1 UNL1     0.0016
     23 C         6.811663   -2.815718   -5.632468 C.3        1 UNL1     0.0012
     24 C         5.7205   -3.091776   -6.678849 C.3        1 UNL1     -0.0339
     25 C         5.515358   -4.600479   -6.89283 C.3        1 UNL1     -0.0615
     26 C         4.427671   -2.403268   -6.277192 C.3        1 UNL1     -0.0615
     27 C         8.47938   6.584824   -3.606424 C.ar        1 UNL1     0.1347
     28 C         7.541117   7.334402   -2.919515 C.ar        1 UNL1     0.0342
     29 C         6.536428   6.574013   -2.284242 C.ar        1 UNL1     0.1435
     30 C         6.464942   5.183754   -2.380637 C.ar        1 UNL1     0.0774
     31 O         5.488751   7.164552   -1.668903 O.3        1 UNL1     -0.4436
     32 C         4.491902   6.135171   -1.582062 C.3        1 UNL1     0.3143
     33 C         5.260907   4.831649   -1.657389 C.2        1 UNL1     0.2504
     34 C         7.420644   8.832741   -2.943298 C.3        1 UNL1     -0.0327
     35 O         3.919108   6.206444   -0.270544 O.2        1 UNL1     -0.4528
     36 C         0.337829   5.001561   -0.632189 C.3        1 UNL1     0.0854
     37 C         -0.199577   3.62731   -1.1891 C.3        1 UNL1     0.0236
     38 C         -1.167656   2.826381   -0.192565 C.3        1 UNL1     0.1131
     39 C         -0.716875   2.568587   1.301626 C.3        1 UNL1     0.0200
     40 C         0.842344   2.083357   1.641957 C.3        1 UNL1     0.0661
     41 C         1.671788   0.807311   0.892733 C.3        1 UNL1     0.0091
     42 C         3.457662   0.600541   0.527625 C.3        1 UNL1     0.0661
     43 C         9.35957   4.461894   -4.599443 C.2        1 UNL1     0.2131
     44 O         10.035871   4.990797   -5.462933 O.2        1 UNL1     -0.2851
     45 O         9.565203   7.229446   -4.195397 O.3        1 UNL1     -0.5056
     46 O         4.95828   3.750907   -1.203224 O.2        1 UNL1     -0.2836
     47 C         5.427283   0.945116   2.293886 C.3        1 UNL1     -0.0566
     48 O         3.523001   -0.78204   1.0599 O.3        1 UNL1     -0.3909
     49 C         0.916688   0.398851   -0.352449 C.3        1 UNL1     -0.0577
     50 O         1.696647   3.201118   1.777971 O.3        1 UNL1     -0.3910
     51 O         0.049286   5.273148   0.720739 O.3        1 UNL1     -0.3753
     52 C         0.865414   2.902109   -2.075004 C.3        1 UNL1     -0.0564
     53 O         -1.934711   1.721899   -0.858953 O.3        1 UNL1     -0.4608
     54 C         -2.52653   0.665435   -0.217419 C.2        1 UNL1     0.3042
     55 O         -2.113128   -0.491174   -0.145356 O.2        1 UNL1     -0.2512
     56 C         -3.78995   1.033191   0.507314 C.3        1 UNL1     0.0332
     57 C         -1.350226   3.727909   2.2033 C.3        1 UNL1     -0.0567
     58 C         3.612892   6.269651   -2.847284 C.3        1 UNL1     0.0210
     59 C         -0.016117   6.659188   1.053126 C.3        1 UNL1     0.0372
     60 C         1.798079   5.225492   -0.81298 C.2        1 UNL1     -0.0208
     61 C         2.712808   5.692808   0.037685 C.2        1 UNL1     0.0882
     62 H         5.064613   2.039004   0.489392 H        1 UNL1     0.0365
     63 H         6.945573   2.240702   -0.279721 H        1 UNL1     0.0576
     64 H         8.423466   -0.463033   -0.328983 H        1 UNL1     0.0615
     65 H         9.16932   2.387587   -1.36606 H        1 UNL1     0.0622
     66 H         -0.162197   5.76307   -1.247108 H        1 UNL1     0.0645
     67 H         -0.901321   3.918574   -1.9899 H        1 UNL1     0.0362
     68 H         -1.998955   3.544801   -0.126712 H        1 UNL1     0.0741
     69 H         -1.310759   1.761803   1.710049 H        1 UNL1     0.0359
     70 H         0.705292   1.712545   2.675772 H        1 UNL1     0.0600
     71 H         1.416515   -0.020723   1.582771 H        1 UNL1     0.0348
     72 H         3.395117   1.372736   1.308086 H        1 UNL1     0.0602
     73 H         2.051796   5.069523   -1.832072 H        1 UNL1     0.0628
     74 H         2.549432   5.824482   1.107829 H        1 UNL1     0.1022
     75 H         12.152441   -0.401651   -1.787238 H        1 UNL1     0.0279
     76 H         11.145813   -0.894474   -3.089975 H        1 UNL1     0.0279
     77 H         12.38309   0.412745   -3.27871 H        1 UNL1     0.0279
     78 H         10.291928   1.314261   -4.700798 H        1 UNL1     0.1553
     79 H         8.654774   0.334671   -4.165678 H        1 UNL1     0.1484
     80 H         4.902224   0.551841   -4.723084 H        1 UNL1     0.0317
     81 H         6.039413   1.668446   -5.46465 H        1 UNL1     0.0317
     82 H         7.673793   -0.186861   -5.889317 H        1 UNL1     0.0428
     83 H         6.109904   -0.483618   -6.615877 H        1 UNL1     0.0428
     84 H         6.906198   -2.464408   -2.935453 H        1 UNL1     0.0428
     85 H         8.177762   -1.478556   -3.568179 H        1 UNL1     0.0428
     86 H         6.766398   -0.484927   -1.766623 H        1 UNL1     0.0317
     87 H         5.335742   -0.605909   -2.68365 H        1 UNL1     0.0317
     88 H         7.76214   -2.646114   -6.155079 H        1 UNL1     0.0429
     89 H         6.956849   -3.681684   -4.973835 H        1 UNL1     0.0429
     90 H         6.016002   -2.640695   -7.633531 H        1 UNL1     0.0308
     91 H         5.45691   -5.133158   -5.938922 H        1 UNL1     0.0233
     92 H         4.60415   -4.789062   -7.465321 H        1 UNL1     0.0233
     93 H         6.334174   -5.056659   -7.46228 H        1 UNL1     0.0233
     94 H         3.574927   -2.885359   -6.767349 H        1 UNL1     0.0233
     95 H         4.283204   -2.481072   -5.195972 H        1 UNL1     0.0233
     96 H         4.434867   -1.346141   -6.557192 H        1 UNL1     0.0233
     97 H         6.533317   9.1785   -2.421444 H        1 UNL1     0.0280
     98 H         8.269738   9.324054   -2.450443 H        1 UNL1     0.0280
     99 H         7.365614   9.182026   -3.987361 H        1 UNL1     0.0280
     100 H         9.338988   7.976657   -4.720872 H        1 UNL1     0.2922
     101 H         4.476181   1.19706   2.762487 H        1 UNL1     0.0236
     102 H         6.243383   1.563022   2.666923 H        1 UNL1     0.0236
     103 H         5.65664   -0.071325   2.655047 H        1 UNL1     0.0236
     104 H         3.733358   -0.721797   2.012313 H        1 UNL1     0.2098
     105 H         0.685092   1.219542   -1.02672 H        1 UNL1     0.0234
     106 H         1.361977   -0.429052   -0.90401 H        1 UNL1     0.0234
     107 H         0.0   -0.0   0.0 H        1 UNL1     0.0234
     108 H         1.131431   3.979335   1.947319 H        1 UNL1     0.2098
     109 H         1.792839   2.693532   -1.52356 H        1 UNL1     0.0234
     110 H         0.491637   1.97684   -2.52657 H        1 UNL1     0.0234
     111 H         1.162817   3.516817   -2.935023 H        1 UNL1     0.0234
     112 H         -4.558297   0.276104   0.323447 H        1 UNL1     0.0342
     113 H         -3.624517   1.17074   1.574814 H        1 UNL1     0.0342
     114 H         -4.153201   1.987243   0.101116 H        1 UNL1     0.0342
     115 H         -2.43418   3.819343   2.048793 H        1 UNL1     0.0234
     116 H         -1.180844   3.599957   3.274274 H        1 UNL1     0.0234
     117 H         -1.008958   4.739291   1.922971 H        1 UNL1     0.0234
     118 H         2.627082   6.712877   -2.622039 H        1 UNL1     0.0309
     119 H         4.091963   6.847813   -3.64379 H        1 UNL1     0.0309
     120 H         3.358845   5.299297   -3.287713 H        1 UNL1     0.0309
     121 H         0.219238   6.755596   2.112688 H        1 UNL1     0.0524
     122 H         0.720902   7.258863   0.493456 H        1 UNL1     0.0524
     123 H         -1.010967   7.047068   0.853336 H        1 UNL1     0.0524
@<TRIPOS>BOND
     1     1     2    1
     2     1    42    1
     3     2     3    2
     4     3     4    1
     5     4     5    2
     6     5     7    1
     7     6    75    1
     8     6    76    1
     9     6    77    1
    10     7     9   am
    11     9    10    1
    12    10    11    2
    13    10    43    1
    14    11    14    1
    15    11    15    1
    16    12    13   ar
    17    12    27   ar
    18    12    43    1
    19    13    14    1
    20    13    30   ar
    21    14    17    2
    22    15    16    1
    23    16    17    1
    24    16    18    1
    25    16    22    1
    26    18    19    1
    27    19    20    1
    28    20    21    1
    29    21    22    1
    30    23    24    1
    31    23    88    1
    32    23    89    1
    33    24    25    1
    34    24    26    1
    35    24    90    1
    36    25    91    1
    37    25    92    1
    38    25    93    1
    39    26    94    1
    40    26    95    1
    41    26    96    1
    42    27    28   ar
    43    28    29   ar
    44    29    30   ar
    45    29    31    1
    46    30    33    1
    47    31    32    1
    48    32    33    1
    49    32    35    1
    50    34    97    1
    51    34    98    1
    52    34    99    1
    53    35    61    1
    54    36    37    1
    55    36    60    1
    56    37    38    1
    57    38    39    1
    58    39    40    1
    59    40    41    1
    60    41    42    1
    61    45   100    1
    62    47   101    1
    63    47   102    1
    64    47   103    1
    65    48   104    1
    66    49   105    1
    67    49   106    1
    68    49   107    1
    69    50   108    1
    70    51    59    1
    71    52   109    1
    72    52   110    1
    73    52   111    1
    74    53    54    1
    75    54    55    2
    76    54    56    1
    77    56   112    1
    78    56   113    1
    79    56   114    1
    80    57   115    1
    81    57   116    1
    82    57   117    1
    83    58   118    1
    84    58   119    1
    85    58   120    1
    86    59   121    1
    87    59   122    1
    88    59   123    1
    89    60    61    2
    90     1    47    1
    91     1    62    1
    92     2    63    1
    93     3    64    1
    94     4    65    1
    95     5     6    1
    96     7     8    2
    97     9    78    1
    98    15    79    1
    99    18    80    1
   100    18    81    1
   101    19    82    1
   102    19    83    1
   103    20    23    1
   104    21    84    1
   105    21    85    1
   106    22    86    1
   107    22    87    1
   108    27    45    1
   109    28    34    1
   110    32    58    1
   111    33    46    2
   112    36    51    1
   113    36    66    1
   114    37    52    1
   115    37    67    1
   116    38    53    1
   117    38    68    1
   118    42    48    1
   119    42    72    1
   120    43    44    2
   121    60    73    1
   122    61    74    1
   123    39    69    1
   124    39    57    1
   125    40    70    1
   126    40    50    1
   127    41    71    1
   128    41    49    1
