@<TRIPOS>MOLECULE
*****
 123 128 0 0 0
SMALL
GASTEIGER

@<TRIPOS>ATOM
     1 C         3.676613   3.021502   0.751251 C.3        1 UNL1     0.0009
     2 C         4.852212   3.908096   -0.375227 C.2        1 UNL1     -0.0787
     3 C         6.19646   4.129909   -0.864965 C.2        1 UNL1     -0.0649
     4 C         6.68614   5.118164   -2.149458 C.2        1 UNL1     -0.0542
     5 C         7.718651   5.382453   -3.082813 C.2        1 UNL1     0.0115
     6 C         9.186528   5.043795   -3.462248 C.3        1 UNL1     -0.0348
     7 C         7.38239   6.256919   -4.386356 C.2        1 UNL1     0.2441
     8 O         7.687449   7.436788   -4.493008 O.2        1 UNL1     -0.2702
     9 N         6.949113   5.513962   -5.498309 N.am        1 UNL1     -0.2772
     10 C         5.58416   5.344334   -5.460193 C.2        1 UNL1     0.1049
     11 C         5.141609   4.353122   -4.707949 C.2        1 UNL1     0.0801
     12 C         3.438352   6.591232   -5.147006 C.ar        1 UNL1     0.0753
     13 C         3.092431   5.595971   -4.178294 C.ar        1 UNL1     0.0305
     14 C         3.876866   4.372864   -4.024275 C.2        1 UNL1     0.0924
     15 N         5.811775   3.341269   -4.130405 N.pl3        1 UNL1     -0.3170
     16 C         4.843834   2.439231   -3.565009 C.3        1 UNL1     0.1275
     17 N         3.650277   3.310139   -3.257333 N.2        1 UNL1     -0.2557
     18 C         4.402514   1.49382   -4.678174 C.3        1 UNL1     0.0016
     19 C         5.633672   0.812865   -5.254491 C.3        1 UNL1     0.0026
     20 N         6.309233   0.087074   -4.18778 N.3        1 UNL1     -0.3018
     21 C         6.717739   0.90303   -3.042482 C.3        1 UNL1     0.0026
     22 C         5.465038   1.574003   -2.476416 C.3        1 UNL1     0.0016
     23 C         7.314784   -0.833006   -4.680693 C.3        1 UNL1     0.0012
     24 C         7.278494   -0.898802   -6.215656 C.3        1 UNL1     -0.0339
     25 C         8.169907   0.183737   -6.846169 C.3        1 UNL1     -0.0615
     26 C         7.669205   -2.288849   -6.686712 C.3        1 UNL1     -0.0615
     27 C         2.619378   7.695314   -5.371513 C.ar        1 UNL1     0.1347
     28 C         1.414965   7.890971   -4.719473 C.ar        1 UNL1     0.0342
     29 C         1.118869   6.923958   -3.735412 C.ar        1 UNL1     0.1435
     30 C         1.947461   5.831993   -3.474128 C.ar        1 UNL1     0.0774
     31 O         -0.068614   6.914587   -3.091359 O.3        1 UNL1     -0.4436
     32 C         -0.184852   5.584317   -2.564345 C.3        1 UNL1     0.3143
     33 C         1.237562   5.070954   -2.467336 C.2        1 UNL1     0.2504
     34 C         0.370108   8.908548   -5.084044 C.3        1 UNL1     -0.0327
     35 O         -0.679397   5.698705   -1.224348 O.2        1 UNL1     -0.4528
     36 C         -2.677497   2.536546   -0.579033 C.3        1 UNL1     0.0854
     37 C         -2.216429   1.030929   -0.668793 C.3        1 UNL1     0.0236
     38 C         -2.46041   0.168937   0.661315 C.3        1 UNL1     0.1131
     39 C         -1.956433   0.71838   2.056446 C.3        1 UNL1     0.0200
     40 C         -0.445895   1.412196   2.19549 C.3        1 UNL1     0.0661
     41 C         1.009302   0.74553   1.633736 C.3        1 UNL1     0.0091
     42 C         2.521684   1.560674   0.990585 C.3        1 UNL1     0.0661
     43 C         4.653109   6.362843   -5.968264 C.2        1 UNL1     0.2131
     44 O         4.843898   6.890454   -7.048987 O.2        1 UNL1     -0.2851
     45 O         3.051433   8.641015   -6.2991 O.3        1 UNL1     -0.5056
     46 O         1.688101   4.237509   -1.713521 O.2        1 UNL1     -0.2836
     47 C         3.814386   3.555143   2.202535 C.3        1 UNL1     -0.0566
     48 O         3.447728   0.753017   1.820795 O.3        1 UNL1     -0.3909
     49 C         0.692302   -0.398607   0.696743 C.3        1 UNL1     -0.0577
     50 O         -0.497064   2.790433   1.886349 O.3        1 UNL1     -0.3910
     51 O         -3.080026   2.982581   0.696292 O.3        1 UNL1     -0.3753
     52 C         -0.928588   0.867792   -1.540459 C.3        1 UNL1     -0.0564
     53 O         -2.347496   -1.312061   0.446327 O.3        1 UNL1     -0.4608
     54 C         -1.432468   -1.930234   -0.365163 C.2        1 UNL1     0.3042
     55 O         -1.482595   -3.07635   -0.809848 O.2        1 UNL1     -0.2512
     56 C         -0.289878   -1.042356   -0.768737 C.3        1 UNL1     0.0332
     57 C         -3.186851   1.465659   2.753455 C.3        1 UNL1     -0.0567
     58 C         -0.94238   4.756798   -3.628719 C.3        1 UNL1     0.0210
     59 C         -2.639615   2.168865   1.782464 C.3        1 UNL1     0.0372
     60 C         -1.691183   3.527715   -1.088865 C.2        1 UNL1     -0.0208
     61 C         -1.286221   4.68861   -0.572075 C.2        1 UNL1     0.0882
     62 H         2.84889   3.574937   0.291582 H        1 UNL1     0.0365
     63 H         4.177323   4.621004   -0.853511 H        1 UNL1     0.0576
     64 H         7.036621   3.518658   -0.527906 H        1 UNL1     0.0615
     65 H         5.806965   5.735435   -2.3532 H        1 UNL1     0.0622
     66 H         -3.544185   2.600394   -1.251953 H        1 UNL1     0.0645
     67 H         -2.939139   0.570257   -1.364516 H        1 UNL1     0.0362
     68 H         -3.559141   0.212941   0.710068 H        1 UNL1     0.0741
     69 H         -1.904621   -0.104789   2.756529 H        1 UNL1     0.0359
     70 H         -0.321611   1.379736   3.294835 H        1 UNL1     0.0600
     71 H         1.334604   0.199402   2.540864 H        1 UNL1     0.0348
     72 H         1.978649   2.33185   1.55602 H        1 UNL1     0.0602
     73 H         -1.390771   3.249357   -2.068415 H        1 UNL1     0.0628
     74 H         -1.501705   5.01973   0.444372 H        1 UNL1     0.1022
     75 H         9.860527   5.902258   -3.226025 H        1 UNL1     0.0279
     76 H         9.651454   4.224441   -2.918582 H        1 UNL1     0.0279
     77 H         9.333258   4.945296   -4.547821 H        1 UNL1     0.0279
     78 H         7.373437   4.588968   -5.478025 H        1 UNL1     0.1553
     79 H         6.728738   3.0475   -4.412913 H        1 UNL1     0.1484
     80 H         3.695933   0.762696   -4.267119 H        1 UNL1     0.0317
     81 H         3.868593   2.037754   -5.464758 H        1 UNL1     0.0317
     82 H         6.311682   1.534761   -5.733116 H        1 UNL1     0.0428
     83 H         5.296408   0.144781   -6.047566 H        1 UNL1     0.0428
     84 H         7.150308   0.322045   -2.222024 H        1 UNL1     0.0428
     85 H         7.509231   1.616509   -3.310445 H        1 UNL1     0.0428
     86 H         5.778526   2.052117   -1.566954 H        1 UNL1     0.0317
     87 H         4.755469   0.812183   -2.131107 H        1 UNL1     0.0317
     88 H         8.299827   -0.460892   -4.370024 H        1 UNL1     0.0429
     89 H         7.193675   -1.830343   -4.238622 H        1 UNL1     0.0429
     90 H         6.248051   -0.745332   -6.557487 H        1 UNL1     0.0308
     91 H         7.651115   0.703416   -7.657274 H        1 UNL1     0.0233
     92 H         8.482081   0.912922   -6.094873 H        1 UNL1     0.0233
     93 H         9.091868   -0.230335   -7.272042 H        1 UNL1     0.0233
     94 H         8.043988   -2.247679   -7.715147 H        1 UNL1     0.0233
     95 H         8.466339   -2.687744   -6.053133 H        1 UNL1     0.0233
     96 H         6.817744   -2.974461   -6.65639 H        1 UNL1     0.0233
     97 H         -0.56924   8.443993   -5.368726 H        1 UNL1     0.0280
     98 H         0.133034   9.576798   -4.245894 H        1 UNL1     0.0280
     99 H         0.726392   9.515704   -5.932288 H        1 UNL1     0.0280
     100 H         3.705045   8.329585   -6.900287 H        1 UNL1     0.2922
     101 H         4.810426   3.330935   2.583705 H        1 UNL1     0.0236
     102 H         3.030962   3.194268   2.868118 H        1 UNL1     0.0236
     103 H         3.737985   4.65434   2.248599 H        1 UNL1     0.0236
     104 H         3.938306   0.157487   1.221089 H        1 UNL1     0.2098
     105 H         1.54737   -0.772677   0.139301 H        1 UNL1     0.0234
     106 H         0.149004   -1.22507   1.154688 H        1 UNL1     0.0234
     107 H         -0.0   0.0   0.0 H        1 UNL1     0.0234
     108 H         -0.826831   2.870281   0.970573 H        1 UNL1     0.2098
     109 H         -0.108293   1.51258   -1.195387 H        1 UNL1     0.0234
     110 H         -0.579024   -0.168425   -1.602124 H        1 UNL1     0.0234
     111 H         -1.109136   1.150499   -2.586129 H        1 UNL1     0.0234
     112 H         0.115322   -1.371283   -1.730489 H        1 UNL1     0.0342
     113 H         -0.579494   0.006762   -0.805037 H        1 UNL1     0.0342
     114 H         0.504703   -1.14249   -0.016555 H        1 UNL1     0.0342
     115 H         -3.767568   2.056652   2.031871 H        1 UNL1     0.0234
     116 H         -3.881628   0.795756   3.263909 H        1 UNL1     0.0234
     117 H         -2.878637   2.246738   3.469599 H        1 UNL1     0.0234
     118 H         -0.388624   3.846258   -3.917296 H        1 UNL1     0.0309
     119 H         -1.953383   4.477088   -3.315927 H        1 UNL1     0.0309
     120 H         -1.056011   5.294315   -4.57649 H        1 UNL1     0.0309
     121 H         -1.765737   1.612575   1.444477 H        1 UNL1     0.0524
     122 H         -2.334295   2.76755   2.65676 H        1 UNL1     0.0524
     123 H         -3.427371   1.483508   2.082163 H        1 UNL1     0.0524
@<TRIPOS>BOND
     1     1     2    1
     2     1    42    1
     3     2     3    2
     4     3     4    1
     5     4     5    2
     6     5     7    1
     7     6    75    1
     8     6    76    1
     9     6    77    1
    10     7     9   am
    11     9    10    1
    12    10    11    2
    13    10    43    1
    14    11    14    1
    15    11    15    1
    16    12    13   ar
    17    12    27   ar
    18    12    43    1
    19    13    14    1
    20    13    30   ar
    21    14    17    2
    22    15    16    1
    23    16    17    1
    24    16    18    1
    25    16    22    1
    26    18    19    1
    27    19    20    1
    28    20    21    1
    29    21    22    1
    30    23    24    1
    31    23    88    1
    32    23    89    1
    33    24    25    1
    34    24    26    1
    35    24    90    1
    36    25    91    1
    37    25    92    1
    38    25    93    1
    39    26    94    1
    40    26    95    1
    41    26    96    1
    42    27    28   ar
    43    28    29   ar
    44    29    30   ar
    45    29    31    1
    46    30    33    1
    47    31    32    1
    48    32    33    1
    49    32    35    1
    50    34    97    1
    51    34    98    1
    52    34    99    1
    53    35    61    1
    54    36    37    1
    55    36    60    1
    56    37    38    1
    57    38    39    1
    58    39    40    1
    59    40    41    1
    60    41    42    1
    61    45   100    1
    62    47   101    1
    63    47   102    1
    64    47   103    1
    65    48   104    1
    66    49   105    1
    67    49   106    1
    68    49   107    1
    69    50   108    1
    70    51    59    1
    71    52   109    1
    72    52   110    1
    73    52   111    1
    74    53    54    1
    75    54    55    2
    76    54    56    1
    77    56   112    1
    78    56   113    1
    79    56   114    1
    80    57   115    1
    81    57   116    1
    82    57   117    1
    83    58   118    1
    84    58   119    1
    85    58   120    1
    86    59   121    1
    87    59   122    1
    88    59   123    1
    89    60    61    2
    90     1    47    1
    91     1    62    1
    92     2    63    1
    93     3    64    1
    94     4    65    1
    95     5     6    1
    96     7     8    2
    97     9    78    1
    98    15    79    1
    99    18    80    1
   100    18    81    1
   101    19    82    1
   102    19    83    1
   103    20    23    1
   104    21    84    1
   105    21    85    1
   106    22    86    1
   107    22    87    1
   108    27    45    1
   109    28    34    1
   110    32    58    1
   111    33    46    2
   112    36    51    1
   113    36    66    1
   114    37    52    1
   115    37    67    1
   116    38    53    1
   117    38    68    1
   118    42    48    1
   119    42    72    1
   120    43    44    2
   121    60    73    1
   122    61    74    1
   123    39    69    1
   124    39    57    1
   125    40    70    1
   126    40    50    1
   127    41    71    1
   128    41    49    1
