@<TRIPOS>MOLECULE
*****
 123 128 0 0 0
SMALL
GASTEIGER

@<TRIPOS>ATOM
     1 C         5.167727   1.746215   0.494578 C.3        1 UNL1     0.0009
     2 C         6.605253   2.551886   -0.354803 C.2        1 UNL1     -0.0787
     3 C         7.887445   2.453282   -1.019866 C.2        1 UNL1     -0.0649
     4 C         8.765883   3.688206   -1.774629 C.2        1 UNL1     -0.0542
     5 C         9.786554   3.980634   -2.712603 C.2        1 UNL1     0.0115
     6 C         10.914924   3.354902   -3.577798 C.3        1 UNL1     -0.0348
     7 C         9.88292   5.464017   -3.318639 C.2        1 UNL1     0.2441
     8 O         10.706986   6.285169   -2.940289 O.2        1 UNL1     -0.2702
     9 N         9.133428   5.671668   -4.489662 N.am        1 UNL1     -0.2772
     10 C         7.850726   6.058866   -4.17649 C.2        1 UNL1     0.1049
     11 C         7.004325   5.08777   -3.885287 C.2        1 UNL1     0.0801
     12 C         6.55233   7.665732   -2.766 C.ar        1 UNL1     0.0753
     13 C         5.792499   6.538049   -2.319238 C.ar        1 UNL1     0.0305
     14 C         5.909163   5.232475   -2.964929 C.2        1 UNL1     0.0924
     15 N         7.126404   3.758779   -4.044684 N.pl3        1 UNL1     -0.3170
     16 C         5.856092   3.16012   -3.731362 C.3        1 UNL1     0.1275
     17 N         5.219614   4.115379   -2.751516 N.2        1 UNL1     -0.2557
     18 C         5.003954   3.219948   -4.995476 C.3        1 UNL1     0.0016
     19 C         5.759121   2.535818   -6.123872 C.3        1 UNL1     0.0026
     20 N         6.028405   1.15748   -5.738255 N.3        1 UNL1     -0.3018
     21 C         6.791017   0.996377   -4.498563 C.3        1 UNL1     0.0026
     22 C         6.011993   1.686949   -3.377793 C.3        1 UNL1     0.0016
     23 C         6.473124   0.338045   -6.847937 C.3        1 UNL1     0.0012
     24 C         5.318091   0.089391   -7.830702 C.3        1 UNL1     -0.0339
     25 C         5.344748   1.092884   -8.995326 C.3        1 UNL1     -0.0615
     26 C         5.357076   -1.345195   -8.327919 C.3        1 UNL1     -0.0615
     27 C         6.347978   8.933371   -2.226139 C.ar        1 UNL1     0.1347
     28 C         5.388529   9.203103   -1.266579 C.ar        1 UNL1     0.0342
     29 C         4.686184   8.068855   -0.806843 C.ar        1 UNL1     0.1435
     30 C         4.905294   6.786866   -1.312525 C.ar        1 UNL1     0.0774
     31 O         3.644788   8.182675   0.04612 O.3        1 UNL1     -0.4436
     32 C         2.922605   6.950236   -0.096772 C.3        1 UNL1     0.3143
     33 C         3.935718   5.9568   -0.628654 C.2        1 UNL1     0.2504
     34 C         4.942099   10.569295   -0.825763 C.3        1 UNL1     -0.0327
     35 O         2.561057   6.513342   1.219154 O.2        1 UNL1     -0.4528
     36 C         -0.682688   4.582797   0.820153 C.3        1 UNL1     0.0854
     37 C         -0.98811   3.322604   -0.077708 C.3        1 UNL1     0.0236
     38 C         -1.589681   2.061628   0.709562 C.3        1 UNL1     0.1131
     39 C         -0.864867   1.529994   2.011207 C.3        1 UNL1     0.0200
     40 C         0.796234   1.383652   2.053219 C.3        1 UNL1     0.0661
     41 C         1.755861   0.614689   0.884708 C.3        1 UNL1     0.0091
     42 C         3.463919   0.976593   0.32171 C.3        1 UNL1     0.0661
     43 C         7.50287   7.457886   -3.886506 C.2        1 UNL1     0.2131
     44 O         7.90356   8.355971   -4.60458 O.2        1 UNL1     -0.2851
     45 O         7.160977   9.968219   -2.683916 O.3        1 UNL1     -0.5056
     46 O         3.951069   4.753223   -0.498194 O.2        1 UNL1     -0.2836
     47 C         5.563123   1.316162   1.932875 C.3        1 UNL1     -0.0566
     48 O         3.911772   -0.434747   0.403353 O.3        1 UNL1     -0.3909
     49 C         0.922221   0.382827   -0.355768 C.3        1 UNL1     -0.0577
     50 O         1.396801   2.601125   2.44667 O.3        1 UNL1     -0.3910
     51 O         -0.807603   4.392808   2.211459 O.3        1 UNL1     -0.3753
     52 C         0.056878   3.161947   -1.229722 C.3        1 UNL1     -0.0564
     53 O         -2.1923   1.023171   -0.190873 O.3        1 UNL1     -0.4608
     54 C         -2.415405   -0.286804   0.143972 C.2        1 UNL1     0.3042
     55 O         -1.843341   -1.279931   -0.303556 O.2        1 UNL1     -0.2512
     56 C         -3.445625   -0.464727   1.222722 C.3        1 UNL1     0.0332
     57 C         -1.586244   2.198993   3.27225 C.3        1 UNL1     -0.0567
     58 C         1.848098   7.196125   -1.181439 C.3        1 UNL1     0.0210
     59 C         -1.151554   5.565414   2.948044 C.3        1 UNL1     0.0372
     60 C         0.646728   5.211311   0.590405 C.2        1 UNL1     -0.0208
     61 C         1.559411   5.64588   1.460407 C.2        1 UNL1     0.0882
     62 H         4.692228   2.73059   0.581855 H        1 UNL1     0.0365
     63 H         6.339451   3.605784   -0.24936 H        1 UNL1     0.0576
     64 H         8.344756   1.486274   -1.240928 H        1 UNL1     0.0615
     65 H         8.279054   4.603742   -1.427826 H        1 UNL1     0.0622
     66 H         -1.42682   5.329761   0.509736 H        1 UNL1     0.0645
     67 H         -1.85319   3.632542   -0.689374 H        1 UNL1     0.0362
     68 H         -2.536728   2.498862   1.060918 H        1 UNL1     0.0741
     69 H         -1.196974   0.519002   2.20617 H        1 UNL1     0.0359
     70 H         0.907233   0.723038   2.934314 H        1 UNL1     0.0600
     71 H         1.798734   -0.406609   1.311405 H        1 UNL1     0.0348
     72 H         3.357757   1.464592   1.301456 H        1 UNL1     0.0602
     73 H         0.765259   5.408774   -0.446035 H        1 UNL1     0.0628
     74 H         1.541206   5.434946   2.530179 H        1 UNL1     0.1022
     75 H         10.958799   2.249563   -3.425046 H        1 UNL1     0.0279
     76 H         10.801894   3.438026   -4.656401 H        1 UNL1     0.0279
     77 H         11.919973   3.659043   -3.250574 H        1 UNL1     0.0279
     78 H         9.071286   4.801885   -5.014727 H        1 UNL1     0.1553
     79 H         7.791792   3.330631   -4.661839 H        1 UNL1     0.1484
     80 H         4.042338   2.729423   -4.801969 H        1 UNL1     0.0317
     81 H         4.777982   4.25688   -5.266329 H        1 UNL1     0.0317
     82 H         6.690167   3.06674   -6.371235 H        1 UNL1     0.0428
     83 H         5.13446   2.591489   -7.01592 H        1 UNL1     0.0428
     84 H         6.910678   -0.046712   -4.1896 H        1 UNL1     0.0428
     85 H         7.821339   1.363945   -4.601749 H        1 UNL1     0.0428
     86 H         6.527823   1.436106   -2.469506 H        1 UNL1     0.0317
     87 H         5.032255   1.209748   -3.253336 H        1 UNL1     0.0317
     88 H         7.26972   0.879597   -7.374673 H        1 UNL1     0.0429
     89 H         6.905085   -0.608024   -6.497029 H        1 UNL1     0.0429
     90 H         4.365004   0.196417   -7.299305 H        1 UNL1     0.0308
     91 H         6.293928   1.047664   -9.537649 H        1 UNL1     0.0233
     92 H         4.524738   0.899352   -9.690839 H        1 UNL1     0.0233
     93 H         5.220712   2.128729   -8.656985 H        1 UNL1     0.0233
     94 H         4.66117   -1.474228   -9.163923 H        1 UNL1     0.0233
     95 H         6.361517   -1.589857   -8.684571 H        1 UNL1     0.0233
     96 H         5.081959   -2.049104   -7.537482 H        1 UNL1     0.0233
     97 H         4.148352   10.519706   -0.086347 H        1 UNL1     0.0280
     98 H         5.754878   11.138832   -0.356429 H        1 UNL1     0.0280
     99 H         4.569142   11.134227   -1.695735 H        1 UNL1     0.0280
     100 H         6.694467   10.718872   -3.007197 H        1 UNL1     0.2922
     101 H         4.699841   0.882805   2.437456 H        1 UNL1     0.0236
     102 H         6.013985   2.121146   2.512277 H        1 UNL1     0.0236
     103 H         6.318991   0.513133   1.931965 H        1 UNL1     0.0236
     104 H         4.330792   -0.561155   1.277088 H        1 UNL1     0.2098
     105 H         0.710299   1.281904   -0.928971 H        1 UNL1     0.0234
     106 H         1.291577   -0.405205   -1.0119 H        1 UNL1     0.0234
     107 H         0.0   -0.0   0.0 H        1 UNL1     0.0234
     108 H         1.198924   3.259645   1.753155 H        1 UNL1     0.2098
     109 H         1.081462   3.04789   -0.849024 H        1 UNL1     0.0234
     110 H         -0.175603   2.335128   -1.909476 H        1 UNL1     0.0234
     111 H         0.078827   4.044914   -1.882282 H        1 UNL1     0.0234
     112 H         -3.571587   -1.528674   1.445201 H        1 UNL1     0.0342
     113 H         -3.197293   0.095884   2.122661 H        1 UNL1     0.0342
     114 H         -4.405104   -0.083316   0.847102 H        1 UNL1     0.0342
     115 H         -2.65056   1.931057   3.323547 H        1 UNL1     0.0234
     116 H         -1.135323   1.937996   4.231729 H        1 UNL1     0.0234
     117 H         -1.64616   3.299331   3.212192 H        1 UNL1     0.0234
     118 H         0.947041   7.683354   -0.76948 H        1 UNL1     0.0309
     119 H         2.218184   7.784145   -2.027295 H        1 UNL1     0.0309
     120 H         1.459307   6.264456   -1.60681 H        1 UNL1     0.0309
     121 H         -0.346911   6.287624   2.812699 H        1 UNL1     0.0524
     122 H         -2.081304   6.031794   2.58186 H        1 UNL1     0.0524
     123 H         -1.267898   5.326911   4.001455 H        1 UNL1     0.0524
@<TRIPOS>BOND
     1     1     2    1
     2     1    42    1
     3     2     3    2
     4     3     4    1
     5     4     5    2
     6     5     7    1
     7     6    75    1
     8     6    76    1
     9     6    77    1
    10     7     9   am
    11     9    10    1
    12    10    11    2
    13    10    43    1
    14    11    14    1
    15    11    15    1
    16    12    13   ar
    17    12    27   ar
    18    12    43    1
    19    13    14    1
    20    13    30   ar
    21    14    17    2
    22    15    16    1
    23    16    17    1
    24    16    18    1
    25    16    22    1
    26    18    19    1
    27    19    20    1
    28    20    21    1
    29    21    22    1
    30    23    24    1
    31    23    88    1
    32    23    89    1
    33    24    25    1
    34    24    26    1
    35    24    90    1
    36    25    91    1
    37    25    92    1
    38    25    93    1
    39    26    94    1
    40    26    95    1
    41    26    96    1
    42    27    28   ar
    43    28    29   ar
    44    29    30   ar
    45    29    31    1
    46    30    33    1
    47    31    32    1
    48    32    33    1
    49    32    35    1
    50    34    97    1
    51    34    98    1
    52    34    99    1
    53    35    61    1
    54    36    37    1
    55    36    60    1
    56    37    38    1
    57    38    39    1
    58    39    40    1
    59    40    41    1
    60    41    42    1
    61    45   100    1
    62    47   101    1
    63    47   102    1
    64    47   103    1
    65    48   104    1
    66    49   105    1
    67    49   106    1
    68    49   107    1
    69    50   108    1
    70    51    59    1
    71    52   109    1
    72    52   110    1
    73    52   111    1
    74    53    54    1
    75    54    55    2
    76    54    56    1
    77    56   112    1
    78    56   113    1
    79    56   114    1
    80    57   115    1
    81    57   116    1
    82    57   117    1
    83    58   118    1
    84    58   119    1
    85    58   120    1
    86    59   121    1
    87    59   122    1
    88    59   123    1
    89    60    61    2
    90     1    47    1
    91     1    62    1
    92     2    63    1
    93     3    64    1
    94     4    65    1
    95     5     6    1
    96     7     8    2
    97     9    78    1
    98    15    79    1
    99    18    80    1
   100    18    81    1
   101    19    82    1
   102    19    83    1
   103    20    23    1
   104    21    84    1
   105    21    85    1
   106    22    86    1
   107    22    87    1
   108    27    45    1
   109    28    34    1
   110    32    58    1
   111    33    46    2
   112    36    51    1
   113    36    66    1
   114    37    52    1
   115    37    67    1
   116    38    53    1
   117    38    68    1
   118    42    48    1
   119    42    72    1
   120    43    44    2
   121    60    73    1
   122    61    74    1
   123    39    69    1
   124    39    57    1
   125    40    70    1
   126    40    50    1
   127    41    71    1
   128    41    49    1
