@<TRIPOS>MOLECULE
*****
 123 128 0 0 0
SMALL
GASTEIGER

@<TRIPOS>ATOM
     1 C         5.167159   1.748033   0.494081 C.3        1 UNL1     0.0009
     2 C         6.604272   2.554343   -0.355394 C.2        1 UNL1     -0.0787
     3 C         7.886405   2.456296   -1.020652 C.2        1 UNL1     -0.0649
     4 C         8.764286   3.691641   -1.775374 C.2        1 UNL1     -0.0542
     5 C         9.784717   3.984568   -2.713453 C.2        1 UNL1     0.0115
     6 C         10.913193   3.359364   -3.578892 C.3        1 UNL1     -0.0348
     7 C         9.880456   5.468067   -3.319303 C.2        1 UNL1     0.2441
     8 O         10.704277   6.289469   -2.940959 O.2        1 UNL1     -0.2702
     9 N         9.130723   5.675602   -4.490192 N.am        1 UNL1     -0.2772
     10 C         7.847924   6.06229   -4.176787 C.2        1 UNL1     0.1049
     11 C         7.001918   5.090846   -3.885594 C.2        1 UNL1     0.0801
     12 C         6.549142   7.668493   -2.765897 C.ar        1 UNL1     0.0753
     13 C         5.789786   6.540473   -2.319179 C.ar        1 UNL1     0.0305
     14 C         5.906834   5.235028   -2.965062 C.2        1 UNL1     0.0924
     15 N         7.12446   3.761921   -4.045187 N.pl3        1 UNL1     -0.3170
     16 C         5.854411   3.162757   -3.731766 C.3        1 UNL1     0.1275
     17 N         5.217723   4.117652   -2.751701 N.2        1 UNL1     -0.2557
     18 C         5.002072   3.222445   -4.995751 C.3        1 UNL1     0.0016
     19 C         5.757329   2.538741   -6.124346 C.3        1 UNL1     0.0026
     20 N         6.02717   1.16045   -5.738953 N.3        1 UNL1     -0.3018
     21 C         6.790016   0.999459   -4.49939 C.3        1 UNL1     0.0026
     22 C         6.010899   1.689596   -3.378417 C.3        1 UNL1     0.0016
     23 C         6.47203   0.341326   -6.848808 C.3        1 UNL1     0.0012
     24 C         5.31695   0.092382   -7.831443 C.3        1 UNL1     -0.0339
     25 C         5.343075   1.096042   -8.995935 C.3        1 UNL1     -0.0615
     26 C         5.356388   -1.342122   -8.328858 C.3        1 UNL1     -0.0615
     27 C         6.344404   8.935985   -2.225836 C.ar        1 UNL1     0.1347
     28 C         5.384993   9.205238   -1.266105 C.ar        1 UNL1     0.0342
     29 C         4.683126   8.070673   -0.806421 C.ar        1 UNL1     0.1435
     30 C         4.902633   6.788831   -1.312307 C.ar        1 UNL1     0.0774
     31 O         3.641809   8.183998   0.046704 O.3        1 UNL1     -0.4436
     32 C         2.920055   6.951314   -0.096251 C.3        1 UNL1     0.3143
     33 C         3.933456   5.95832   -0.62841 C.2        1 UNL1     0.2504
     34 C         4.938127   10.571208   -0.825042 C.3        1 UNL1     -0.0327
     35 O         2.558854   6.514111   1.219666 O.2        1 UNL1     -0.4528
     36 C         -0.684244   4.582437   0.820866 C.3        1 UNL1     0.0854
     37 C         -0.989333   3.322254   -0.077122 C.3        1 UNL1     0.0236
     38 C         -1.590333   2.060952   0.710064 C.3        1 UNL1     0.1131
     39 C         -0.865141   1.529408   2.011535 C.3        1 UNL1     0.0200
     40 C         0.79602   1.383667   2.053293 C.3        1 UNL1     0.0661
     41 C         1.755762   0.61521   0.884542 C.3        1 UNL1     0.0091
     42 C         3.463608   0.977813   0.321351 C.3        1 UNL1     0.0661
     43 C         7.499599   7.461145   -3.886565 C.2        1 UNL1     0.2131
     44 O         7.899859   8.359472   -4.604575 O.2        1 UNL1     -0.2851
     45 O         7.156961   9.971191   -2.683589 O.3        1 UNL1     -0.5056
     46 O         3.949264   4.754731   -0.498115 O.2        1 UNL1     -0.2836
     47 C         5.562916   1.317931   1.932264 C.3        1 UNL1     -0.0566
     48 O         3.911987   -0.433374   0.402741 O.3        1 UNL1     -0.3909
     49 C         0.922031   0.383211   -0.355847 C.3        1 UNL1     -0.0577
     50 O         1.396198   2.601306   2.446822 O.3        1 UNL1     -0.3910
     51 O         -0.808892   4.392216   2.212163 O.3        1 UNL1     -0.3753
     52 C         0.055551   3.162133   -1.229305 C.3        1 UNL1     -0.0564
     53 O         -2.1927   1.022396   -0.190425 O.3        1 UNL1     -0.4608
     54 C         -2.41528   -0.287704   0.144275 C.2        1 UNL1     0.3042
     55 O         -1.843046   -1.280575   -0.303603 O.2        1 UNL1     -0.2512
     56 C         -3.445093   -0.466134   1.223331 C.3        1 UNL1     0.0332
     57 C         -1.586583   2.197975   3.27277 C.3        1 UNL1     -0.0567
     58 C         1.845306   7.196957   -1.180734 C.3        1 UNL1     0.0210
     59 C         -1.153167   5.564597   2.948955 C.3        1 UNL1     0.0372
     60 C         0.64491   5.211467   0.591014 C.2        1 UNL1     -0.0208
     61 C         1.557558   5.646252   1.460945 C.2        1 UNL1     0.0882
     62 H         4.691314   2.732223   0.581558 H        1 UNL1     0.0365
     63 H         6.3381   3.608129   -0.249773 H        1 UNL1     0.0576
     64 H         8.344037   1.489484   -1.241909 H        1 UNL1     0.0615
     65 H         8.277172   4.606954   -1.428379 H        1 UNL1     0.0622
     66 H         -1.428692   5.329171   0.510654 H        1 UNL1     0.0645
     67 H         -1.854613   3.631958   -0.688623 H        1 UNL1     0.0362
     68 H         -2.537489   2.497794   1.061612 H        1 UNL1     0.0741
     69 H         -1.19685   0.518269   2.206409 H        1 UNL1     0.0359
     70 H         0.907385   0.722975   2.934283 H        1 UNL1     0.0600
     71 H         1.799068   -0.406129   1.311096 H        1 UNL1     0.0348
     72 H         3.357407   1.465642   1.301177 H        1 UNL1     0.0602
     73 H         0.763223   5.409113   -0.445416 H        1 UNL1     0.0628
     74 H         1.539581   5.435168   2.530691 H        1 UNL1     0.1022
     75 H         10.957492   2.25402   -3.426294 H        1 UNL1     0.0279
     76 H         10.79998   3.442592   -4.657467 H        1 UNL1     0.0279
     77 H         11.918178   3.663827   -3.251769 H        1 UNL1     0.0279
     78 H         9.068824   4.805867   -5.015365 H        1 UNL1     0.1553
     79 H         7.789917   3.334099   -4.662494 H        1 UNL1     0.1484
     80 H         4.040662   2.731542   -4.802175 H        1 UNL1     0.0317
     81 H         4.775683   4.25933   -5.266433 H        1 UNL1     0.0317
     82 H         6.688146   3.070036   -6.37177 H        1 UNL1     0.0428
     83 H         5.132522   2.594305   -7.016298 H        1 UNL1     0.0428
     84 H         6.910102   -0.043628   -4.190584 H        1 UNL1     0.0428
     85 H         7.820189   1.367416   -4.602673 H        1 UNL1     0.0428
     86 H         6.526949   1.438819   -2.470237 H        1 UNL1     0.0317
     87 H         5.031353   1.21202   -3.253886 H        1 UNL1     0.0317
     88 H         7.268354   0.88324   -7.375583 H        1 UNL1     0.0429
     89 H         6.904387   -0.604633   -6.498087 H        1 UNL1     0.0429
     90 H         4.363898   0.19899   -7.299896 H        1 UNL1     0.0308
     91 H         6.292195   1.051241   -9.538399 H        1 UNL1     0.0233
     92 H         4.523038   0.902304   -9.691358 H        1 UNL1     0.0233
     93 H         5.21871   2.131797   -8.657437 H        1 UNL1     0.0233
     94 H         4.660411   -1.471296   -9.16478 H        1 UNL1     0.0233
     95 H         6.360868   -1.58637   -8.685685 H        1 UNL1     0.0233
     96 H         5.081639   -2.046237   -7.538477 H        1 UNL1     0.0233
     97 H         4.144502   10.52123   -0.085521 H        1 UNL1     0.0280
     98 H         5.750764   11.140978   -0.355746 H        1 UNL1     0.0280
     99 H         4.56484   11.136121   -1.694885 H        1 UNL1     0.0280
     100 H         6.690131   10.721717   -3.006704 H        1 UNL1     0.2922
     101 H         4.699864   0.884192   2.43691 H        1 UNL1     0.0236
     102 H         6.013567   2.123002   2.511711 H        1 UNL1     0.0236
     103 H         6.319077   0.515179   1.93114 H        1 UNL1     0.0236
     104 H         4.331177   -0.559747   1.2764 H        1 UNL1     0.2098
     105 H         0.7097   1.282288   -0.928899 H        1 UNL1     0.0234
     106 H         1.291581   -0.404598   -1.012137 H        1 UNL1     0.0234
     107 H         0.0   -0.0   0.0 H        1 UNL1     0.0234
     108 H         1.197983   3.259847   1.753423 H        1 UNL1     0.2098
     109 H         1.08023   3.048399   -0.848767 H        1 UNL1     0.0234
     110 H         -0.176725   2.33532   -1.909138 H        1 UNL1     0.0234
     111 H         0.077086   4.045196   -1.881749 H        1 UNL1     0.0234
     112 H         -3.568381   -1.529962   1.447866 H        1 UNL1     0.0342
     113 H         -3.198213   0.096845   2.12219 H        1 UNL1     0.0342
     114 H         -4.405515   -0.087871   0.846937 H        1 UNL1     0.0342
     115 H         -2.650793   1.929644   3.324181 H        1 UNL1     0.0234
     116 H         -1.135431   1.937013   4.23215 H        1 UNL1     0.0234
     117 H         -1.646909   3.298299   3.212868 H        1 UNL1     0.0234
     118 H         0.94413   7.683802   -0.768582 H        1 UNL1     0.0309
     119 H         2.215058   7.785226   -2.026563 H        1 UNL1     0.0309
     120 H         1.456795   6.265204   -1.606174 H        1 UNL1     0.0309
     121 H         -0.348806   6.287119   2.813593 H        1 UNL1     0.0524
     122 H         -2.083139   6.030688   2.582965 H        1 UNL1     0.0524
     123 H         -1.269274   5.325911   4.002351 H        1 UNL1     0.0524
@<TRIPOS>BOND
     1     1     2    1
     2     1    42    1
     3     2     3    2
     4     3     4    1
     5     4     5    2
     6     5     7    1
     7     6    75    1
     8     6    76    1
     9     6    77    1
    10     7     9   am
    11     9    10    1
    12    10    11    2
    13    10    43    1
    14    11    14    1
    15    11    15    1
    16    12    13   ar
    17    12    27   ar
    18    12    43    1
    19    13    14    1
    20    13    30   ar
    21    14    17    2
    22    15    16    1
    23    16    17    1
    24    16    18    1
    25    16    22    1
    26    18    19    1
    27    19    20    1
    28    20    21    1
    29    21    22    1
    30    23    24    1
    31    23    88    1
    32    23    89    1
    33    24    25    1
    34    24    26    1
    35    24    90    1
    36    25    91    1
    37    25    92    1
    38    25    93    1
    39    26    94    1
    40    26    95    1
    41    26    96    1
    42    27    28   ar
    43    28    29   ar
    44    29    30   ar
    45    29    31    1
    46    30    33    1
    47    31    32    1
    48    32    33    1
    49    32    35    1
    50    34    97    1
    51    34    98    1
    52    34    99    1
    53    35    61    1
    54    36    37    1
    55    36    60    1
    56    37    38    1
    57    38    39    1
    58    39    40    1
    59    40    41    1
    60    41    42    1
    61    45   100    1
    62    47   101    1
    63    47   102    1
    64    47   103    1
    65    48   104    1
    66    49   105    1
    67    49   106    1
    68    49   107    1
    69    50   108    1
    70    51    59    1
    71    52   109    1
    72    52   110    1
    73    52   111    1
    74    53    54    1
    75    54    55    2
    76    54    56    1
    77    56   112    1
    78    56   113    1
    79    56   114    1
    80    57   115    1
    81    57   116    1
    82    57   117    1
    83    58   118    1
    84    58   119    1
    85    58   120    1
    86    59   121    1
    87    59   122    1
    88    59   123    1
    89    60    61    2
    90     1    47    1
    91     1    62    1
    92     2    63    1
    93     3    64    1
    94     4    65    1
    95     5     6    1
    96     7     8    2
    97     9    78    1
    98    15    79    1
    99    18    80    1
   100    18    81    1
   101    19    82    1
   102    19    83    1
   103    20    23    1
   104    21    84    1
   105    21    85    1
   106    22    86    1
   107    22    87    1
   108    27    45    1
   109    28    34    1
   110    32    58    1
   111    33    46    2
   112    36    51    1
   113    36    66    1
   114    37    52    1
   115    37    67    1
   116    38    53    1
   117    38    68    1
   118    42    48    1
   119    42    72    1
   120    43    44    2
   121    60    73    1
   122    61    74    1
   123    39    69    1
   124    39    57    1
   125    40    70    1
   126    40    50    1
   127    41    71    1
   128    41    49    1
