@<TRIPOS>MOLECULE
*****
 123 128 0 0 0
SMALL
GASTEIGER

@<TRIPOS>ATOM
     1 C         0.43403   0.058235   -4.112093 C.3        1 UNL1     0.0009
     2 C         -0.441137   1.158157   -5.320931 C.2        1 UNL1     -0.0787
     3 C         -1.50172   1.374786   -6.282327 C.2        1 UNL1     -0.0649
     4 C         -1.906697   2.812989   -7.078519 C.2        1 UNL1     -0.0542
     5 C         -2.92508   3.505062   -7.77924 C.2        1 UNL1     0.0115
     6 C         -4.323233   3.352149   -8.438868 C.3        1 UNL1     -0.0348
     7 C         -2.812231   5.098265   -7.940357 C.2        1 UNL1     0.2441
     8 O         -2.446413   5.638161   -8.975352 O.2        1 UNL1     -0.2702
     9 N         -3.408591   5.838673   -6.904836 N.am        1 UNL1     -0.2772
     10 C         -2.511242   6.042365   -5.881802 C.2        1 UNL1     0.1049
     11 C         -2.384006   5.054991   -5.013974 C.2        1 UNL1     0.0801
     12 C         -0.175114   6.805147   -5.414897 C.ar        1 UNL1     0.0753
     13 C         -0.020084   5.605724   -4.649417 C.ar        1 UNL1     0.0305
     14 C         -1.162289   4.757366   -4.316692 C.2        1 UNL1     0.0924
     15 N         -3.138817   3.956874   -4.838111 N.pl3        1 UNL1     -0.3170
     16 C         -2.675387   3.290796   -3.649908 C.3        1 UNL1     0.1275
     17 N         -1.220214   3.676667   -3.543606 N.2        1 UNL1     -0.2557
     18 C         -3.37492   3.945435   -2.462556 C.3        1 UNL1     0.0016
     19 C         -4.877651   3.867799   -2.680186 C.3        1 UNL1     0.0026
     20 N         -5.260213   2.468324   -2.80724 N.3        1 UNL1     -0.3018
     21 C         -4.591971   1.736531   -3.88534 C.3        1 UNL1     0.0026
     22 C         -3.083933   1.82362   -3.644231 C.3        1 UNL1     0.0016
     23 C         -6.692437   2.264863   -2.717897 C.3        1 UNL1     0.0012
     24 C         -7.004195   0.91167   -2.059543 C.3        1 UNL1     -0.0339
     25 C         -8.466996   0.837578   -1.591802 C.3        1 UNL1     -0.0615
     26 C         -6.663726   -0.2215   -3.011797 C.3        1 UNL1     -0.0615
     27 C         0.895827   7.670555   -5.625314 C.ar        1 UNL1     0.1347
     28 C         2.154355   7.463725   -5.089238 C.ar        1 UNL1     0.0342
     29 C         2.296063   6.251966   -4.380207 C.ar        1 UNL1     0.1435
     30 C         1.241534   5.35769   -4.191908 C.ar        1 UNL1     0.0774
     31 O         3.429191   5.958438   -3.705767 O.3        1 UNL1     -0.4436
     32 C         3.040233   4.944075   -2.767336 C.3        1 UNL1     0.3143
     33 C         1.798124   4.310684   -3.360793 C.2        1 UNL1     0.2504
     34 C         3.275797   8.464542   -5.060412 C.3        1 UNL1     -0.0327
     35 O         4.064044   3.941576   -2.77497 O.2        1 UNL1     -0.4528
     36 C         4.08707   2.451069   0.715868 C.3        1 UNL1     0.0854
     37 C         2.912524   1.764702   1.513907 C.3        1 UNL1     0.0236
     38 C         3.231126   0.286119   2.046851 C.3        1 UNL1     0.1131
     39 C         3.802742   -0.80141   1.050455 C.3        1 UNL1     0.0200
     40 C         3.163132   -0.962804   -0.481632 C.3        1 UNL1     0.0661
     41 C         1.515351   -1.097914   -0.861333 C.3        1 UNL1     0.0091
     42 C         0.582769   -0.526367   -2.334095 C.3        1 UNL1     0.0661
     43 C         -1.535658   7.142445   -5.902144 C.2        1 UNL1     0.2131
     44 O         -1.881681   8.269847   -6.205407 O.2        1 UNL1     -0.2851
     45 O         0.671765   8.792877   -6.420063 O.3        1 UNL1     -0.5056
     46 O         1.375342   3.187463   -3.201153 O.2        1 UNL1     -0.2836
     47 C         1.283233   -1.001577   -4.864182 C.3        1 UNL1     -0.0566
     48 O         -0.129561   -1.813116   -2.523776 O.3        1 UNL1     -0.3909
     49 C         0.701369   -0.711844   0.353524 C.3        1 UNL1     -0.0577
     50 O         3.796142   -0.078749   -1.384665 O.3        1 UNL1     -0.3910
     51 O         5.193433   1.629069   0.419713 O.3        1 UNL1     -0.3753
     52 C         1.511942   2.157754   0.940471 C.3        1 UNL1     -0.0564
     53 O         2.260271   -0.201206   3.082361 O.3        1 UNL1     -0.4608
     54 C         1.521019   -1.352141   2.999993 C.2        1 UNL1     0.3042
     55 O         1.881431   -2.441038   2.554746 O.2        1 UNL1     -0.2512
     56 C         0.142963   -1.224886   3.584358 C.3        1 UNL1     0.0332
     57 C         5.395461   -0.799857   1.196813 C.3        1 UNL1     -0.0567
     58 C         2.650918   5.679986   -1.464109 C.3        1 UNL1     0.0210
     59 C         5.11532   0.305771   0.947582 C.3        1 UNL1     0.0372
     60 C         3.6836   3.10367   -0.559469 C.2        1 UNL1     -0.0208
     61 C         4.252429   3.070314   -1.765316 C.2        1 UNL1     0.0882
     62 H         1.109314   0.889007   -3.874352 H        1 UNL1     0.0365
     63 H         0.202307   2.040117   -5.296502 H        1 UNL1     0.0576
     64 H         -2.272684   0.622486   -6.463344 H        1 UNL1     0.0615
     65 H         -1.043988   3.460879   -6.901165 H        1 UNL1     0.0622
     66 H         4.43085   3.261778   1.3736 H        1 UNL1     0.0645
     67 H         2.862821   2.332729   2.459124 H        1 UNL1     0.0362
     68 H         4.058311   0.513432   2.7365 H        1 UNL1     0.0741
     69 H         3.644537   -1.782518   1.478013 H        1 UNL1     0.0359
     70 H         3.558541   -1.961383   -0.749121 H        1 UNL1     0.0600
     71 H         1.405284   -2.200095   -0.855012 H        1 UNL1     0.0348
     72 H         1.639431   -0.556606   -2.637192 H        1 UNL1     0.0602
     73 H         2.87443   3.765155   -0.372574 H        1 UNL1     0.0628
     74 H         5.046254   2.380489   -2.053795 H        1 UNL1     0.1022
     75 H         -4.606068   4.287473   -8.979429 H        1 UNL1     0.0279
     76 H         -4.413041   2.596273   -9.21582 H        1 UNL1     0.0279
     77 H         -5.135256   3.274117   -7.701149 H        1 UNL1     0.0279
     78 H         -4.196123   5.319246   -6.52265 H        1 UNL1     0.1553
     79 H         -4.076954   3.8649   -5.182164 H        1 UNL1     0.1484
     80 H         -3.076265   3.428851   -1.542387 H        1 UNL1     0.0317
     81 H         -3.062705   4.989378   -2.351396 H        1 UNL1     0.0317
     82 H         -5.191728   4.445616   -3.561887 H        1 UNL1     0.0428
     83 H         -5.356857   4.341801   -1.82302 H        1 UNL1     0.0428
     84 H         -4.836489   0.670006   -3.908753 H        1 UNL1     0.0428
     85 H         -4.895223   2.101595   -4.876341 H        1 UNL1     0.0428
     86 H         -2.636421   1.170633   -4.370404 H        1 UNL1     0.0317
     87 H         -2.829553   1.35145   -2.687443 H        1 UNL1     0.0317
     88 H         -7.1124   3.063061   -2.091953 H        1 UNL1     0.0429
     89 H         -7.168808   2.344799   -3.703521 H        1 UNL1     0.0429
     90 H         -6.35186   0.777204   -1.188571 H        1 UNL1     0.0308
     91 H         -9.03165   1.718813   -1.910694 H        1 UNL1     0.0233
     92 H         -8.952391   -0.05998   -1.982174 H        1 UNL1     0.0233
     93 H         -8.554012   0.781963   -0.499936 H        1 UNL1     0.0233
     94 H         -6.76935   -1.186255   -2.503932 H        1 UNL1     0.0233
     95 H         -7.349208   -0.212231   -3.863848 H        1 UNL1     0.0233
     96 H         -5.638436   -0.136632   -3.382668 H        1 UNL1     0.0233
     97 H         3.349103   9.021224   -5.989907 H        1 UNL1     0.0280
     98 H         3.140578   9.214939   -4.270553 H        1 UNL1     0.0280
     99 H         4.232229   7.942397   -4.893984 H        1 UNL1     0.0280
     100 H         -0.112921   8.755373   -6.938218 H        1 UNL1     0.2922
     101 H         2.284797   -1.041143   -4.436443 H        1 UNL1     0.0236
     102 H         1.304813   -0.846994   -5.942431 H        1 UNL1     0.0236
     103 H         0.883022   -2.020978   -4.734396 H        1 UNL1     0.0236
     104 H         -0.797708   -1.67989   -3.224348 H        1 UNL1     0.2098
     105 H         0.145981   -1.532167   0.801212 H        1 UNL1     0.0234
     106 H         1.25533   -0.168538   1.118948 H        1 UNL1     0.0234
     107 H         0.0   0.0   0.0 H        1 UNL1     0.0234
     108 H         3.288891   0.755763   -1.377321 H        1 UNL1     0.2098
     109 H         1.377071   3.246843   0.882111 H        1 UNL1     0.0234
     110 H         1.306379   1.710138   -0.037858 H        1 UNL1     0.0234
     111 H         0.696263   1.790961   1.577713 H        1 UNL1     0.0234
     112 H         -0.123528   -0.168148   3.682504 H        1 UNL1     0.0342
     113 H         -0.601331   -1.762799   2.999106 H        1 UNL1     0.0342
     114 H         0.155449   -1.663996   4.591429 H        1 UNL1     0.0342
     115 H         5.880014   -0.245982   0.380959 H        1 UNL1     0.0234
     116 H         5.75437   -0.378777   2.138049 H        1 UNL1     0.0234
     117 H         5.849355   -1.79845   1.075433 H        1 UNL1     0.0234
     118 H         1.556216   5.749163   -1.338219 H        1 UNL1     0.0309
     119 H         3.08652   5.226521   -0.568105 H        1 UNL1     0.0309
     120 H         2.972216   6.727297   -1.460721 H        1 UNL1     0.0309
     121 H         5.779259   -0.324617   0.35669 H        1 UNL1     0.0524
     122 H         5.453298   0.252904   1.99592 H        1 UNL1     0.0524
     123 H         4.095495   -0.063505   0.886867 H        1 UNL1     0.0524
@<TRIPOS>BOND
     1     1     2    1
     2     1    42    1
     3     2     3    2
     4     3     4    1
     5     4     5    2
     6     5     7    1
     7     6    75    1
     8     6    76    1
     9     6    77    1
    10     7     9   am
    11     9    10    1
    12    10    11    2
    13    10    43    1
    14    11    14    1
    15    11    15    1
    16    12    13   ar
    17    12    27   ar
    18    12    43    1
    19    13    14    1
    20    13    30   ar
    21    14    17    2
    22    15    16    1
    23    16    17    1
    24    16    18    1
    25    16    22    1
    26    18    19    1
    27    19    20    1
    28    20    21    1
    29    21    22    1
    30    23    24    1
    31    23    88    1
    32    23    89    1
    33    24    25    1
    34    24    26    1
    35    24    90    1
    36    25    91    1
    37    25    92    1
    38    25    93    1
    39    26    94    1
    40    26    95    1
    41    26    96    1
    42    27    28   ar
    43    28    29   ar
    44    29    30   ar
    45    29    31    1
    46    30    33    1
    47    31    32    1
    48    32    33    1
    49    32    35    1
    50    34    97    1
    51    34    98    1
    52    34    99    1
    53    35    61    1
    54    36    37    1
    55    36    60    1
    56    37    38    1
    57    38    39    1
    58    39    40    1
    59    40    41    1
    60    41    42    1
    61    45   100    1
    62    47   101    1
    63    47   102    1
    64    47   103    1
    65    48   104    1
    66    49   105    1
    67    49   106    1
    68    49   107    1
    69    50   108    1
    70    51    59    1
    71    52   109    1
    72    52   110    1
    73    52   111    1
    74    53    54    1
    75    54    55    2
    76    54    56    1
    77    56   112    1
    78    56   113    1
    79    56   114    1
    80    57   115    1
    81    57   116    1
    82    57   117    1
    83    58   118    1
    84    58   119    1
    85    58   120    1
    86    59   121    1
    87    59   122    1
    88    59   123    1
    89    60    61    2
    90     1    47    1
    91     1    62    1
    92     2    63    1
    93     3    64    1
    94     4    65    1
    95     5     6    1
    96     7     8    2
    97     9    78    1
    98    15    79    1
    99    18    80    1
   100    18    81    1
   101    19    82    1
   102    19    83    1
   103    20    23    1
   104    21    84    1
   105    21    85    1
   106    22    86    1
   107    22    87    1
   108    27    45    1
   109    28    34    1
   110    32    58    1
   111    33    46    2
   112    36    51    1
   113    36    66    1
   114    37    52    1
   115    37    67    1
   116    38    53    1
   117    38    68    1
   118    42    48    1
   119    42    72    1
   120    43    44    2
   121    60    73    1
   122    61    74    1
   123    39    69    1
   124    39    57    1
   125    40    70    1
   126    40    50    1
   127    41    71    1
   128    41    49    1
