@<TRIPOS>MOLECULE
*****
 123 128 0 0 0
SMALL
GASTEIGER

@<TRIPOS>ATOM
     1 C         4.971781   2.239239   0.528162 C.3        1 UNL1     0.0009
     2 C         6.358918   3.116116   -0.334377 C.2        1 UNL1     -0.0787
     3 C         7.671175   3.094642   -0.945578 C.2        1 UNL1     -0.0649
     4 C         8.456964   4.349028   -1.767409 C.2        1 UNL1     -0.0542
     5 C         9.482761   4.66845   -2.690875 C.2        1 UNL1     0.0115
     6 C         10.701233   4.093323   -3.464099 C.3        1 UNL1     -0.0348
     7 C         9.460648   6.102973   -3.411045 C.2        1 UNL1     0.2441
     8 O         10.185187   7.028712   -3.072554 O.2        1 UNL1     -0.2702
     9 N         8.743949   6.144251   -4.619677 N.am        1 UNL1     -0.2772
     10 C         7.417965   6.424882   -4.382326 C.2        1 UNL1     0.1049
     11 C         6.657849   5.399721   -4.042486 C.2        1 UNL1     0.0801
     12 C         5.913064   7.998421   -3.150831 C.ar        1 UNL1     0.0753
     13 C         5.247682   6.838506   -2.640464 C.ar        1 UNL1     0.0305
     14 C         5.516525   5.505194   -3.174367 C.2        1 UNL1     0.0924
     15 N         6.91412   4.081159   -4.089887 N.pl3        1 UNL1     -0.3170
     16 C         5.695583   3.38501   -3.772404 C.3        1 UNL1     0.1275
     17 N         4.929715   4.344807   -2.894931 N.2        1 UNL1     -0.2557
     18 C         4.89494   3.26226   -5.06531 C.3        1 UNL1     0.0016
     19 C         5.758852   2.571806   -6.10863 C.3        1 UNL1     0.0026
     20 N         6.143618   1.260897   -5.604148 N.3        1 UNL1     -0.3018
     21 C         6.866018   1.272391   -4.330423 C.3        1 UNL1     0.0026
     22 C         5.978076   1.966274   -3.296026 C.3        1 UNL1     0.0016
     23 C         6.711078   0.406771   -6.628404 C.3        1 UNL1     0.0012
     24 C         5.627289   -0.03048   -7.626386 C.3        1 UNL1     -0.0339
     25 C         5.853146   0.596112   -9.012181 C.3        1 UNL1     -0.0615
     26 C         5.569149   -1.546338   -7.701049 C.3        1 UNL1     -0.0615
     27 C         5.565078   9.277228   -2.722256 C.ar        1 UNL1     0.1347
     28 C         4.545021   9.523253   -1.820587 C.ar        1 UNL1     0.0342
     29 C         3.936901   8.363544   -1.294821 C.ar        1 UNL1     0.1435
     30 C         4.299527   7.074601   -1.687691 C.ar        1 UNL1     0.0774
     31 O         2.854826   8.438536   -0.489528 O.3        1 UNL1     -0.4436
     32 C         2.261506   7.133042   -0.556825 C.3        1 UNL1     0.3143
     33 C         3.386985   6.20733   -0.972236 C.2        1 UNL1     0.2504
     34 C         3.950905   10.868122   -1.506816 C.3        1 UNL1     -0.0327
     35 O         1.889412   6.764973   0.777088 O.2        1 UNL1     -0.4528
     36 C         -1.133503   4.496354   0.425746 C.3        1 UNL1     0.0854
     37 C         -1.278306   3.146657   -0.377294 C.3        1 UNL1     0.0236
     38 C         -1.787597   1.896469   0.488384 C.3        1 UNL1     0.1131
     39 C         -1.069607   1.541385   1.85245 C.3        1 UNL1     0.0200
     40 C         0.594675   1.564688   1.962277 C.3        1 UNL1     0.0661
     41 C         1.67177   0.807326   0.892754 C.3        1 UNL1     0.0091
     42 C         3.358856   1.292925   0.360461 C.3        1 UNL1     0.0661
     43 C         6.92498   7.800512   -4.218125 C.2        1 UNL1     0.2131
     44 O         7.266643   8.676033   -4.992377 O.2        1 UNL1     -0.2851
     45 O         6.29275   10.349485   -3.234305 O.3        1 UNL1     -0.5056
     46 O         3.512967   5.024886   -0.744622 O.2        1 UNL1     -0.2836
     47 C         5.346694   1.96268   2.009019 C.3        1 UNL1     -0.0566
     48 O         3.937024   -0.056364   0.570837 O.3        1 UNL1     -0.3909
     49 C         0.916687   0.398864   -0.352438 C.3        1 UNL1     -0.0577
     50 O         1.05808   2.862528   2.276268 O.3        1 UNL1     -0.3910
     51 O         -1.297233   4.402573   1.822825 O.3        1 UNL1     -0.3753
     52 C         -0.175707   3.002531   -1.47659 C.3        1 UNL1     -0.0564
     53 O         -2.249241   0.736983   -0.345163 O.3        1 UNL1     -0.4608
     54 C         -2.368223   -0.557207   0.0894 C.2        1 UNL1     0.3042
     55 O         -1.485481   -1.412927   0.137849 O.2        1 UNL1     -0.2512
     56 C         -3.738593   -0.895338   0.603665 C.3        1 UNL1     0.0332
     57 C         -1.90397   2.230403   3.030273 C.3        1 UNL1     -0.0567
     58 C         1.214312   7.186571   -1.693508 C.3        1 UNL1     0.0210
     59 C         -2.512367   4.958938   2.322597 C.3        1 UNL1     0.0372
     60 C         0.137457   5.234436   0.191104 C.2        1 UNL1     -0.0208
     61 C         0.966987   5.823334   1.053557 C.2        1 UNL1     0.0882
     62 H         4.400299   3.175212   0.519583 H        1 UNL1     0.0365
     63 H         5.988508   4.143319   -0.323381 H        1 UNL1     0.0576
     64 H         8.228457   2.163787   -1.072286 H        1 UNL1     0.0615
     65 H         7.870067   5.235564   -1.512286 H        1 UNL1     0.0622
     66 H         -1.93269   5.139456   0.031074 H        1 UNL1     0.0645
     67 H         -2.143076   3.320978   -1.040877 H        1 UNL1     0.0362
     68 H         -2.786199   2.263071   0.771083 H        1 UNL1     0.0741
     69 H         -1.310424   0.520399   2.117028 H        1 UNL1     0.0359
     70 H         0.732177   0.988205   2.897061 H        1 UNL1     0.0600
     71 H         1.795217   -0.168739   1.401688 H        1 UNL1     0.0348
     72 H         3.165462   1.841924   1.293475 H        1 UNL1     0.0602
     73 H         0.279365   5.362321   -0.853288 H        1 UNL1     0.0628
     74 H         0.924764   5.694633   2.135634 H        1 UNL1     0.1022
     75 H         10.797563   2.995555   -3.283377 H        1 UNL1     0.0279
     76 H         10.657315   4.149088   -4.54947 H        1 UNL1     0.0279
     77 H         11.662703   4.461872   -3.077513 H        1 UNL1     0.0279
     78 H         8.78791   5.234767   -5.074633 H        1 UNL1     0.1553
     79 H         7.642796   3.675087   -4.647623 H        1 UNL1     0.1484
     80 H         3.977935   2.694868   -4.865471 H        1 UNL1     0.0317
     81 H         4.581419   4.247619   -5.42645 H        1 UNL1     0.0317
     82 H         6.643796   3.172085   -6.366413 H        1 UNL1     0.0428
     83 H         5.169361   2.49621   -7.022871 H        1 UNL1     0.0428
     84 H         7.072826   0.273281   -3.934417 H        1 UNL1     0.0428
     85 H         7.859458   1.731591   -4.428042 H        1 UNL1     0.0428
     86 H         6.477497   1.838673   -2.353537 H        1 UNL1     0.0317
     87 H         5.044635   1.404982   -3.166661 H        1 UNL1     0.0317
     88 H         7.472905   0.98271   -7.169891 H        1 UNL1     0.0429
     89 H         7.217352   -0.461792   -6.187883 H        1 UNL1     0.0429
     90 H         4.646565   0.288915   -7.254389 H        1 UNL1     0.0308
     91 H         6.898975   0.510063   -9.321921 H        1 UNL1     0.0233
     92 H         5.216934   0.117967   -9.76066 H        1 UNL1     0.0233
     93 H         5.601709   1.663417   -9.033932 H        1 UNL1     0.0233
     94 H         5.110361   -1.860696   -8.644727 H        1 UNL1     0.0233
     95 H         6.580229   -1.961352   -7.663052 H        1 UNL1     0.0233
     96 H         4.984784   -1.964356   -6.876582 H        1 UNL1     0.0233
     97 H         2.884681   10.900033   -1.710233 H        1 UNL1     0.0280
     98 H         4.062771   11.132943   -0.447282 H        1 UNL1     0.0280
     99 H         4.442915   11.641011   -2.119731 H        1 UNL1     0.0280
     100 H         5.958626   10.699571   -4.041414 H        1 UNL1     0.2922
     101 H         4.442131   1.785066   2.590289 H        1 UNL1     0.0236
     102 H         5.967568   2.743488   2.44701 H        1 UNL1     0.0236
     103 H         5.937334   1.038122   2.120961 H        1 UNL1     0.0236
     104 H         4.250939   -0.101907   1.495149 H        1 UNL1     0.2098
     105 H         0.685088   1.219555   -1.026707 H        1 UNL1     0.0234
     106 H         1.361992   -0.429032   -0.903998 H        1 UNL1     0.0234
     107 H         0.0   -0.0   0.0 H        1 UNL1     0.0234
     108 H         0.966644   3.406144   1.470111 H        1 UNL1     0.2098
     109 H         -0.2234   3.808804   -2.221815 H        1 UNL1     0.0234
     110 H         0.837547   2.943681   -1.064769 H        1 UNL1     0.0234
     111 H         -0.287856   2.067958   -2.042224 H        1 UNL1     0.0234
     112 H         -4.048375   -1.873106   0.222418 H        1 UNL1     0.0342
     113 H         -3.786408   -0.866994   1.69121 H        1 UNL1     0.0342
     114 H         -4.443811   -0.145346   0.21981 H        1 UNL1     0.0342
     115 H         -2.970819   1.972546   2.979958 H        1 UNL1     0.0234
     116 H         -1.551495   1.97579   4.031763 H        1 UNL1     0.0234
     117 H         -1.946798   3.330518   2.953758 H        1 UNL1     0.0234
     118 H         0.181115   7.130188   -1.308368 H        1 UNL1     0.0309
     119 H         1.312558   8.074023   -2.326736 H        1 UNL1     0.0309
     120 H         1.280267   6.324877   -2.366739 H        1 UNL1     0.0309
     121 H         -2.340246   5.24984   3.358505 H        1 UNL1     0.0524
     122 H         -2.816791   5.863374   1.770004 H        1 UNL1     0.0524
     123 H         -3.312167   4.225911   2.267054 H        1 UNL1     0.0524
@<TRIPOS>BOND
     1     1     2    1
     2     1    42    1
     3     2     3    2
     4     3     4    1
     5     4     5    2
     6     5     7    1
     7     6    75    1
     8     6    76    1
     9     6    77    1
    10     7     9   am
    11     9    10    1
    12    10    11    2
    13    10    43    1
    14    11    14    1
    15    11    15    1
    16    12    13   ar
    17    12    27   ar
    18    12    43    1
    19    13    14    1
    20    13    30   ar
    21    14    17    2
    22    15    16    1
    23    16    17    1
    24    16    18    1
    25    16    22    1
    26    18    19    1
    27    19    20    1
    28    20    21    1
    29    21    22    1
    30    23    24    1
    31    23    88    1
    32    23    89    1
    33    24    25    1
    34    24    26    1
    35    24    90    1
    36    25    91    1
    37    25    92    1
    38    25    93    1
    39    26    94    1
    40    26    95    1
    41    26    96    1
    42    27    28   ar
    43    28    29   ar
    44    29    30   ar
    45    29    31    1
    46    30    33    1
    47    31    32    1
    48    32    33    1
    49    32    35    1
    50    34    97    1
    51    34    98    1
    52    34    99    1
    53    35    61    1
    54    36    37    1
    55    36    60    1
    56    37    38    1
    57    38    39    1
    58    39    40    1
    59    40    41    1
    60    41    42    1
    61    45   100    1
    62    47   101    1
    63    47   102    1
    64    47   103    1
    65    48   104    1
    66    49   105    1
    67    49   106    1
    68    49   107    1
    69    50   108    1
    70    51    59    1
    71    52   109    1
    72    52   110    1
    73    52   111    1
    74    53    54    1
    75    54    55    2
    76    54    56    1
    77    56   112    1
    78    56   113    1
    79    56   114    1
    80    57   115    1
    81    57   116    1
    82    57   117    1
    83    58   118    1
    84    58   119    1
    85    58   120    1
    86    59   121    1
    87    59   122    1
    88    59   123    1
    89    60    61    2
    90     1    47    1
    91     1    62    1
    92     2    63    1
    93     3    64    1
    94     4    65    1
    95     5     6    1
    96     7     8    2
    97     9    78    1
    98    15    79    1
    99    18    80    1
   100    18    81    1
   101    19    82    1
   102    19    83    1
   103    20    23    1
   104    21    84    1
   105    21    85    1
   106    22    86    1
   107    22    87    1
   108    27    45    1
   109    28    34    1
   110    32    58    1
   111    33    46    2
   112    36    51    1
   113    36    66    1
   114    37    52    1
   115    37    67    1
   116    38    53    1
   117    38    68    1
   118    42    48    1
   119    42    72    1
   120    43    44    2
   121    60    73    1
   122    61    74    1
   123    39    69    1
   124    39    57    1
   125    40    70    1
   126    40    50    1
   127    41    71    1
   128    41    49    1
