@<TRIPOS>MOLECULE
*****
 123 128 0 0 0
SMALL
GASTEIGER

@<TRIPOS>ATOM
     1 C         -4.362801   1.923918   1.298407 C.3        1 UNL1     0.0009
     2 C         -6.118406   1.328236   1.291245 C.2        1 UNL1     -0.0787
     3 C         -7.477814   1.431378   0.80399 C.2        1 UNL1     -0.0649
     4 C         -8.779409   0.397247   1.124586 C.2        1 UNL1     -0.0542
     5 C         -10.054741   -0.034875   0.684271 C.2        1 UNL1     0.0115
     6 C         -11.207403   0.263872   -0.313448 C.3        1 UNL1     -0.0348
     7 C         -10.638682   -1.423544   1.238887 C.2        1 UNL1     0.2441
     8 O         -11.490033   -1.484774   2.11523 O.2        1 UNL1     -0.2702
     9 N         -10.300617   -2.552585   0.472641 N.am        1 UNL1     -0.2772
     10 C         -9.100274   -3.076991   0.893947 C.2        1 UNL1     0.1049
     11 C         -8.013033   -2.504283   0.410072 C.2        1 UNL1     0.0801
     12 C         -7.858165   -3.791172   2.944421 C.ar        1 UNL1     0.0753
     13 C         -6.775033   -2.981846   2.474927 C.ar        1 UNL1     0.0305
     14 C         -6.76974   -2.417651   1.127074 C.2        1 UNL1     0.0924
     15 N         -7.875652   -1.621506   -0.594099 N.pl3        1 UNL1     -0.3170
     16 C         -6.468063   -1.445052   -0.83454 C.3        1 UNL1     0.1275
     17 N         -5.818101   -1.735501   0.496216 N.2        1 UNL1     -0.2557
     18 C         -6.026319   -2.562663   -1.774491 C.3        1 UNL1     0.0016
     19 C         -6.887924   -2.51435   -3.026246 C.3        1 UNL1     0.0026
     20 N         -6.729556   -1.20933   -3.653039 N.3        1 UNL1     -0.3018
     21 C         -7.071605   -0.066245   -2.804082 C.3        1 UNL1     0.0026
     22 C         -6.191155   -0.132077   -1.554934 C.3        1 UNL1     0.0016
     23 C         -7.265306   -1.161377   -4.99889 C.3        1 UNL1     0.0012
     24 C         -7.257215   0.280421   -5.53078 C.3        1 UNL1     -0.0339
     25 C         -6.252402   0.449419   -6.682235 C.3        1 UNL1     -0.0615
     26 C         -8.659191   0.689569   -5.947724 C.3        1 UNL1     -0.0615
     27 C         -7.801633   -4.424255   4.183828 C.ar        1 UNL1     0.1347
     28 C         -6.702551   -4.354759   5.021229 C.ar        1 UNL1     0.0342
     29 C         -5.668279   -3.512881   4.560051 C.ar        1 UNL1     0.1435
     30 C         -5.726172   -2.843453   3.337048 C.ar        1 UNL1     0.0774
     31 O         -4.486772   -3.427411   5.209468 O.3        1 UNL1     -0.4436
     32 C         -3.575659   -2.895003   4.236181 C.3        1 UNL1     0.3143
     33 C         -4.448319   -2.170659   3.231193 C.2        1 UNL1     0.2504
     34 C         -6.468056   -5.202427   6.240479 C.3        1 UNL1     -0.0327
     35 O         -2.782994   -1.899294   4.894586 O.2        1 UNL1     -0.4528
     36 C         0.575099   -1.904931   3.125047 C.3        1 UNL1     0.0854
     37 C         0.897189   -1.674606   1.598374 C.3        1 UNL1     0.0236
     38 C         1.954091   -0.506132   1.299422 C.3        1 UNL1     0.1131
     39 C         1.746491   0.923873   1.94305 C.3        1 UNL1     0.0200
     40 C         0.23469   1.628388   1.966613 C.3        1 UNL1     0.0661
     41 C         -0.810457   1.782671   0.639408 C.3        1 UNL1     0.0091
     42 C         -2.643217   1.770945   0.560308 C.3        1 UNL1     0.0661
     43 C         -9.006314   -4.006818   2.029265 C.2        1 UNL1     0.2131
     44 O         -9.775762   -4.945768   2.124448 O.2        1 UNL1     -0.2851
     45 O         -8.916943   -5.156384   4.585706 O.3        1 UNL1     -0.5056
     46 O         -4.160161   -1.234526   2.519522 O.2        1 UNL1     -0.2836
     47 C         -4.247352   3.252438   2.093195 C.3        1 UNL1     -0.0566
     48 O         -2.727248   2.973487   -0.303375 O.3        1 UNL1     -0.3909
     49 C         -0.314882   0.892125   -0.478102 C.3        1 UNL1     -0.0577
     50 O         -0.49121   1.219098   3.108223 O.3        1 UNL1     -0.3910
     51 O         1.111805   -0.955184   4.017997 O.3        1 UNL1     -0.3753
     52 C         -0.358439   -1.910331   0.696829 C.3        1 UNL1     -0.0564
     53 O         2.504604   -0.536957   -0.096397 O.3        1 UNL1     -0.4608
     54 C         1.759231   -0.61765   -1.243497 C.2        1 UNL1     0.3042
     55 O         1.959619   -0.032492   -2.30711 O.2        1 UNL1     -0.2512
     56 C         0.614602   -1.586055   -1.150059 C.3        1 UNL1     0.0332
     57 C         2.615805   0.979827   3.284444 C.3        1 UNL1     -0.0567
     58 C         -2.918259   -4.110299   3.541623 C.3        1 UNL1     0.0210
     59 C         2.40745   -1.273318   4.523921 C.3        1 UNL1     0.0372
     60 C         -0.87179   -2.030426   3.450504 C.2        1 UNL1     -0.0208
     61 C         -1.586916   -1.48439   4.434976 C.2        1 UNL1     0.0882
     62 H         -4.112276   1.117705   1.998386 H        1 UNL1     0.0365
     63 H         -6.074771   0.556733   2.062833 H        1 UNL1     0.0576
     64 H         -7.751465   2.136446   0.015889 H        1 UNL1     0.0615
     65 H         -8.432567   -0.204065   1.969339 H        1 UNL1     0.0622
     66 H         1.021983   -2.881916   3.357083 H        1 UNL1     0.0645
     67 H         1.472593   -2.570672   1.307624 H        1 UNL1     0.0362
     68 H         2.839336   -0.92609   1.800918 H        1 UNL1     0.0741
     69 H         2.334815   1.643448   1.38943 H        1 UNL1     0.0359
     70 H         0.516455   2.677382   2.179405 H        1 UNL1     0.0600
     71 H         -0.508144   2.78241   0.270511 H        1 UNL1     0.0348
     72 H         -2.386236   1.994172   1.605987 H        1 UNL1     0.0602
     73 H         -1.307878   -2.768623   2.824293 H        1 UNL1     0.0628
     74 H         -1.232752   -0.681361   5.082239 H        1 UNL1     0.1022
     75 H         -12.055688   0.769733   0.207659 H        1 UNL1     0.0279
     76 H         -10.982379   0.95641   -1.121424 H        1 UNL1     0.0279
     77 H         -11.695028   -0.649047   -0.685606 H        1 UNL1     0.0279
     78 H         -10.191856   -2.283722   -0.503044 H        1 UNL1     0.1553
     79 H         -8.571259   -1.469563   -1.301189 H        1 UNL1     0.1484
     80 H         -4.964348   -2.429664   -2.013855 H        1 UNL1     0.0317
     81 H         -6.118332   -3.540656   -1.290016 H        1 UNL1     0.0317
     82 H         -7.944845   -2.719718   -2.80118 H        1 UNL1     0.0428
     83 H         -6.557333   -3.320599   -3.681778 H        1 UNL1     0.0428
     84 H         -6.868319   0.902808   -3.270368 H        1 UNL1     0.0428
     85 H         -8.146121   -0.032838   -2.576891 H        1 UNL1     0.0428
     86 H         -6.372099   0.784393   -1.024528 H        1 UNL1     0.0317
     87 H         -5.133908   -0.057386   -1.837328 H        1 UNL1     0.0317
     88 H         -6.623507   -1.775504   -5.644055 H        1 UNL1     0.0429
     89 H         -8.273176   -1.593891   -5.04252 H        1 UNL1     0.0429
     90 H         -6.975531   0.961246   -4.71878 H        1 UNL1     0.0308
     91 H         -6.060341   -0.502915   -7.185497 H        1 UNL1     0.0233
     92 H         -6.620466   1.173391   -7.41299 H        1 UNL1     0.0233
     93 H         -5.282579   0.828546   -6.337935 H        1 UNL1     0.0233
     94 H         -8.644685   1.692288   -6.388384 H        1 UNL1     0.0233
     95 H         -9.042373   -0.004275   -6.701192 H        1 UNL1     0.0233
     96 H         -9.343107   0.696974   -5.094394 H        1 UNL1     0.0233
     97 H         -6.950354   -4.790592   7.121961 H        1 UNL1     0.0280
     98 H         -6.871673   -6.216631   6.123257 H        1 UNL1     0.0280
     99 H         -5.386023   -5.271774   6.439202 H        1 UNL1     0.0280
     100 H         -9.158125   -5.854328   4.002329 H        1 UNL1     0.2922
     101 H         -4.523501   4.089481   1.452292 H        1 UNL1     0.0236
     102 H         -3.269338   3.393877   2.55196 H        1 UNL1     0.0236
     103 H         -4.960668   3.295859   2.933128 H        1 UNL1     0.0236
     104 H         -2.899437   3.741334   0.27605 H        1 UNL1     0.2098
     105 H         -1.072887   0.627172   -1.210932 H        1 UNL1     0.0234
     106 H         0.58605   1.247493   -0.978064 H        1 UNL1     0.0234
     107 H         0.0   0.0   0.0 H        1 UNL1     0.0234
     108 H         -1.119159   1.935025   3.324777 H        1 UNL1     0.2098
     109 H         -1.197898   -2.344116   1.257945 H        1 UNL1     0.0234
     110 H         -0.692718   -1.004787   0.179151 H        1 UNL1     0.0234
     111 H         -0.146356   -2.61835   -0.115375 H        1 UNL1     0.0234
     112 H         -0.228487   -1.117038   -0.633756 H        1 UNL1     0.0342
     113 H         0.314571   -1.961026   -2.127413 H        1 UNL1     0.0342
     114 H         0.941047   -2.446175   -0.549399 H        1 UNL1     0.0342
     115 H         2.02679   0.689258   4.16525 H        1 UNL1     0.0234
     116 H         3.506815   0.349212   3.262654 H        1 UNL1     0.0234
     117 H         2.927905   2.000762   3.564133 H        1 UNL1     0.0234
     118 H         -1.846256   -4.200022   3.790152 H        1 UNL1     0.0309
     119 H         -3.41883   -5.057098   3.767904 H        1 UNL1     0.0309
     120 H         -2.91777   -4.020928   2.449781 H        1 UNL1     0.0309
     121 H         3.138335   -0.960286   3.77882 H        1 UNL1     0.0524
     122 H         2.635232   -0.734998   5.458995 H        1 UNL1     0.0524
     123 H         2.48901   -2.341623   4.703272 H        1 UNL1     0.0524
@<TRIPOS>BOND
     1     1     2    1
     2     1    42    1
     3     2     3    2
     4     3     4    1
     5     4     5    2
     6     5     7    1
     7     6    75    1
     8     6    76    1
     9     6    77    1
    10     7     9   am
    11     9    10    1
    12    10    11    2
    13    10    43    1
    14    11    14    1
    15    11    15    1
    16    12    13   ar
    17    12    27   ar
    18    12    43    1
    19    13    14    1
    20    13    30   ar
    21    14    17    2
    22    15    16    1
    23    16    17    1
    24    16    18    1
    25    16    22    1
    26    18    19    1
    27    19    20    1
    28    20    21    1
    29    21    22    1
    30    23    24    1
    31    23    88    1
    32    23    89    1
    33    24    25    1
    34    24    26    1
    35    24    90    1
    36    25    91    1
    37    25    92    1
    38    25    93    1
    39    26    94    1
    40    26    95    1
    41    26    96    1
    42    27    28   ar
    43    28    29   ar
    44    29    30   ar
    45    29    31    1
    46    30    33    1
    47    31    32    1
    48    32    33    1
    49    32    35    1
    50    34    97    1
    51    34    98    1
    52    34    99    1
    53    35    61    1
    54    36    37    1
    55    36    60    1
    56    37    38    1
    57    38    39    1
    58    39    40    1
    59    40    41    1
    60    41    42    1
    61    45   100    1
    62    47   101    1
    63    47   102    1
    64    47   103    1
    65    48   104    1
    66    49   105    1
    67    49   106    1
    68    49   107    1
    69    50   108    1
    70    51    59    1
    71    52   109    1
    72    52   110    1
    73    52   111    1
    74    53    54    1
    75    54    55    2
    76    54    56    1
    77    56   112    1
    78    56   113    1
    79    56   114    1
    80    57   115    1
    81    57   116    1
    82    57   117    1
    83    58   118    1
    84    58   119    1
    85    58   120    1
    86    59   121    1
    87    59   122    1
    88    59   123    1
    89    60    61    2
    90     1    47    1
    91     1    62    1
    92     2    63    1
    93     3    64    1
    94     4    65    1
    95     5     6    1
    96     7     8    2
    97     9    78    1
    98    15    79    1
    99    18    80    1
   100    18    81    1
   101    19    82    1
   102    19    83    1
   103    20    23    1
   104    21    84    1
   105    21    85    1
   106    22    86    1
   107    22    87    1
   108    27    45    1
   109    28    34    1
   110    32    58    1
   111    33    46    2
   112    36    51    1
   113    36    66    1
   114    37    52    1
   115    37    67    1
   116    38    53    1
   117    38    68    1
   118    42    48    1
   119    42    72    1
   120    43    44    2
   121    60    73    1
   122    61    74    1
   123    39    69    1
   124    39    57    1
   125    40    70    1
   126    40    50    1
   127    41    71    1
   128    41    49    1
