@<TRIPOS>MOLECULE
*****
 123 128 0 0 0
SMALL
GASTEIGER

@<TRIPOS>ATOM
     1 C         5.191937   1.671892   0.497839 C.3        1 UNL1     0.0009
     2 C         6.620281   2.516111   -0.329302 C.2        1 UNL1     -0.0787
     3 C         7.888595   2.447809   -1.024113 C.2        1 UNL1     -0.0649
     4 C         8.763697   3.719187   -1.719923 C.2        1 UNL1     -0.0542
     5 C         9.768907   4.059807   -2.658331 C.2        1 UNL1     0.0115
     6 C         10.874806   3.478716   -3.581717 C.3        1 UNL1     -0.0348
     7 C         9.867216   5.576382   -3.175366 C.2        1 UNL1     0.2441
     8 O         10.705809   6.366515   -2.764297 O.2        1 UNL1     -0.2702
     9 N         9.097439   5.86058   -4.31678 N.am        1 UNL1     -0.2772
     10 C         7.824533   6.238268   -3.955695 C.2        1 UNL1     0.1049
     11 C         6.97502   5.258067   -3.707189 C.2        1 UNL1     0.0801
     12 C         6.568001   7.766959   -2.425477 C.ar        1 UNL1     0.0753
     13 C         5.80658   6.620347   -2.032889 C.ar        1 UNL1     0.0305
     14 C         5.898987   5.355423   -2.758479 C.2        1 UNL1     0.0924
     15 N         7.081908   3.940252   -3.948989 N.pl3        1 UNL1     -0.3170
     16 C         5.812399   3.33382   -3.647588 C.3        1 UNL1     0.1275
     17 N         5.203476   4.232962   -2.599505 N.2        1 UNL1     -0.2557
     18 C         4.936874   3.47693   -4.888828 C.3        1 UNL1     0.0016
     19 C         5.664098   2.856469   -6.071098 C.3        1 UNL1     0.0026
     20 N         5.928108   1.455196   -5.774854 N.3        1 UNL1     -0.3018
     21 C         6.712738   1.213193   -4.562353 C.3        1 UNL1     0.0026
     22 C         5.961575   1.840735   -3.386836 C.3        1 UNL1     0.0016
     23 C         6.344076   0.701017   -6.940542 C.3        1 UNL1     0.0012
     24 C         5.168279   0.521577   -7.913711 C.3        1 UNL1     -0.0339
     25 C         5.249502   1.516294   -9.083325 C.3        1 UNL1     -0.0615
     26 C         5.112827   -0.914758   -8.40427 C.3        1 UNL1     -0.0615
     27 C         6.385559   9.00113   -1.806078 C.ar        1 UNL1     0.1347
     28 C         5.447098   9.219825   -0.813348 C.ar        1 UNL1     0.0342
     29 C         4.743337   8.065416   -0.409334 C.ar        1 UNL1     0.1435
     30 C         4.941055   6.814733   -0.99578 C.ar        1 UNL1     0.0774
     31 O         3.719489   8.135603   0.469196 O.3        1 UNL1     -0.4436
     32 C         2.983499   6.91987   0.266253 C.3        1 UNL1     0.3143
     33 C         3.977175   5.952477   -0.344461 C.2        1 UNL1     0.2504
     34 C         5.021641   10.560292   -0.282091 C.3        1 UNL1     -0.0327
     35 O         2.64316   6.406907   1.560197 O.2        1 UNL1     -0.4528
     36 C         -0.625083   4.529943   1.108888 C.3        1 UNL1     0.0854
     37 C         -0.959066   3.328955   0.142655 C.3        1 UNL1     0.0236
     38 C         -1.55698   2.027401   0.863904 C.3        1 UNL1     0.1131
     39 C         -0.812337   1.412106   2.116577 C.3        1 UNL1     0.0200
     40 C         0.847859   1.250287   2.117099 C.3        1 UNL1     0.0661
     41 C         1.777959   0.545958   0.885659 C.3        1 UNL1     0.0091
     42 C         3.478192   0.927731   0.312196 C.3        1 UNL1     0.0661
     43 C         7.49505   7.619862   -3.574913 C.2        1 UNL1     0.2131
     44 O         7.890138   8.556604   -4.245104 O.2        1 UNL1     -0.2851
     45 O         7.19908   10.055326   -2.216312 O.3        1 UNL1     -0.5056
     46 O         3.984033   4.743121   -0.287318 O.2        1 UNL1     -0.2836
     47 C         5.610769   1.152323   1.899484 C.3        1 UNL1     -0.0566
     48 O         3.914629   -0.489478   0.299586 O.3        1 UNL1     -0.3909
     49 C         0.918718   0.396344   -0.349984 C.3        1 UNL1     -0.0577
     50 O         1.466905   2.436861   2.571575 O.3        1 UNL1     -0.3910
     51 O         -0.725152   4.256973   2.488347 O.3        1 UNL1     -0.3753
     52 C         0.062239   3.230117   -1.037225 C.3        1 UNL1     -0.0564
     53 O         -2.18612   1.050253   -0.08567 O.3        1 UNL1     -0.4608
     54 C         -2.395814   -0.280411   0.165906 C.2        1 UNL1     0.3042
     55 O         -1.830892   -1.238167   -0.360786 O.2        1 UNL1     -0.2512
     56 C         -3.398743   -0.535846   1.254758 C.3        1 UNL1     0.0332
     57 C         -1.503386   2.009155   3.429649 C.3        1 UNL1     -0.0567
     58 C         1.890777   7.239584   -0.780299 C.3        1 UNL1     0.0210
     59 C         -1.01323   5.391347   3.304479 C.3        1 UNL1     0.0372
     60 C         0.705384   5.160639   0.891538 C.2        1 UNL1     -0.0208
     61 C         1.63843   5.534408   1.76816 C.2        1 UNL1     0.0882
     62 H         4.727189   2.652916   0.653762 H        1 UNL1     0.0365
     63 H         6.366164   3.56376   -0.155158 H        1 UNL1     0.0576
     64 H         8.332764   1.492372   -1.312143 H        1 UNL1     0.0615
     65 H         8.291946   4.615861   -1.308937 H        1 UNL1     0.0622
     66 H         -1.368159   5.300239   0.858835 H        1 UNL1     0.0645
     67 H         -1.832798   3.682264   -0.432084 H        1 UNL1     0.0362
     68 H         -2.493121   2.450051   1.259541 H        1 UNL1     0.0741
     69 H         -1.14987   0.393828   2.256544 H        1 UNL1     0.0359
     70 H         0.969622   0.536621   2.954306 H        1 UNL1     0.0600
     71 H         1.819649   -0.499633   1.24892 H        1 UNL1     0.0348
     72 H         3.395202   1.356278   1.32154 H        1 UNL1     0.0602
     73 H         0.805911   5.41961   -0.133194 H        1 UNL1     0.0628
     74 H         1.638719   5.259173   2.823377 H        1 UNL1     0.1022
     75 H         10.892459   2.363936   -3.51856 H        1 UNL1     0.0279
     76 H         10.755649   3.651024   -4.649041 H        1 UNL1     0.0279
     77 H         11.889545   3.73127   -3.240801 H        1 UNL1     0.0279
     78 H         9.017358   5.024742   -4.892141 H        1 UNL1     0.1553
     79 H         7.731464   3.545022   -4.603819 H        1 UNL1     0.1484
     80 H         3.974691   2.983238   -4.706515 H        1 UNL1     0.0317
     81 H         4.715241   4.530135   -5.092026 H        1 UNL1     0.0317
     82 H         6.595057   3.39399   -6.304119 H        1 UNL1     0.0428
     83 H         5.023061   2.971071   -6.945734 H        1 UNL1     0.0428
     84 H         6.828754   0.152377   -4.31941 H        1 UNL1     0.0428
     85 H         7.744213   1.578137   -4.663308 H        1 UNL1     0.0428
     86 H         6.492335   1.531208   -2.505658 H        1 UNL1     0.0317
     87 H         4.980079   1.364671   -3.272272 H        1 UNL1     0.0317
     88 H         7.135382   1.267151   -7.449092 H        1 UNL1     0.0429
     89 H         6.774008   -0.267985   -6.655995 H        1 UNL1     0.0429
     90 H         4.227882   0.690938   -7.375954 H        1 UNL1     0.0308
     91 H         6.193803   1.415146   -9.626617 H        1 UNL1     0.0233
     92 H         4.41884   1.365774   -9.776834 H        1 UNL1     0.0233
     93 H         5.184404   2.559112   -8.749965 H        1 UNL1     0.0233
     94 H         4.44064   -0.994055   -9.265497 H        1 UNL1     0.0233
     95 H         6.107526   -1.239754   -8.721941 H        1 UNL1     0.0233
     96 H         4.753853   -1.58989   -7.622411 H        1 UNL1     0.0233
     97 H         4.202064   10.476737   0.425399 H        1 UNL1     0.0280
     98 H         5.83248   11.06853   0.255952 H        1 UNL1     0.0280
     99 H         4.693493   11.200911   -1.116969 H        1 UNL1     0.0280
     100 H         6.734845   10.838997   -2.452888 H        1 UNL1     0.2922
     101 H         4.750404   0.707217   2.398792 H        1 UNL1     0.0236
     102 H         6.090915   1.913879   2.51306 H        1 UNL1     0.0236
     103 H         6.349869   0.336389   1.834854 H        1 UNL1     0.0236
     104 H         4.343725   -0.673608   1.15804 H        1 UNL1     0.2098
     105 H         0.704105   1.330166   -0.863529 H        1 UNL1     0.0234
     106 H         1.268281   -0.353382   -1.059664 H        1 UNL1     0.0234
     107 H         0.0   -0.0   0.0 H        1 UNL1     0.0234
     108 H         1.315118   3.121819   1.892192 H        1 UNL1     0.2098
     109 H         1.094378   3.097434   -0.68396 H        1 UNL1     0.0234
     110 H         -0.183982   2.439806   -1.754531 H        1 UNL1     0.0234
     111 H         0.070814   4.146106   -1.642895 H        1 UNL1     0.0234
     112 H         -3.503332   -1.612573   1.419279 H        1 UNL1     0.0342
     113 H         -3.138942   -0.022732   2.179453 H        1 UNL1     0.0342
     114 H         -4.372144   -0.149877   0.922068 H        1 UNL1     0.0342
     115 H         -2.577012   1.778661   3.466889 H        1 UNL1     0.0234
     116 H         -1.059637   1.658298   4.363477 H        1 UNL1     0.0234
     117 H         -1.521289   3.112335   3.454466 H        1 UNL1     0.0234
     118 H         1.000339   7.703834   -0.32139 H        1 UNL1     0.0309
     119 H         2.248793   7.878596   -1.593743 H        1 UNL1     0.0309
     120 H         1.488715   6.338817   -1.256818 H        1 UNL1     0.0309
     121 H         -0.170741   6.077735   3.224221 H        1 UNL1     0.0524
     122 H         -1.914195   5.930862   2.967992 H        1 UNL1     0.0524
     123 H         -1.150616   5.085751   4.337837 H        1 UNL1     0.0524
@<TRIPOS>BOND
     1     1     2    1
     2     1    42    1
     3     2     3    2
     4     3     4    1
     5     4     5    2
     6     5     7    1
     7     6    75    1
     8     6    76    1
     9     6    77    1
    10     7     9   am
    11     9    10    1
    12    10    11    2
    13    10    43    1
    14    11    14    1
    15    11    15    1
    16    12    13   ar
    17    12    27   ar
    18    12    43    1
    19    13    14    1
    20    13    30   ar
    21    14    17    2
    22    15    16    1
    23    16    17    1
    24    16    18    1
    25    16    22    1
    26    18    19    1
    27    19    20    1
    28    20    21    1
    29    21    22    1
    30    23    24    1
    31    23    88    1
    32    23    89    1
    33    24    25    1
    34    24    26    1
    35    24    90    1
    36    25    91    1
    37    25    92    1
    38    25    93    1
    39    26    94    1
    40    26    95    1
    41    26    96    1
    42    27    28   ar
    43    28    29   ar
    44    29    30   ar
    45    29    31    1
    46    30    33    1
    47    31    32    1
    48    32    33    1
    49    32    35    1
    50    34    97    1
    51    34    98    1
    52    34    99    1
    53    35    61    1
    54    36    37    1
    55    36    60    1
    56    37    38    1
    57    38    39    1
    58    39    40    1
    59    40    41    1
    60    41    42    1
    61    45   100    1
    62    47   101    1
    63    47   102    1
    64    47   103    1
    65    48   104    1
    66    49   105    1
    67    49   106    1
    68    49   107    1
    69    50   108    1
    70    51    59    1
    71    52   109    1
    72    52   110    1
    73    52   111    1
    74    53    54    1
    75    54    55    2
    76    54    56    1
    77    56   112    1
    78    56   113    1
    79    56   114    1
    80    57   115    1
    81    57   116    1
    82    57   117    1
    83    58   118    1
    84    58   119    1
    85    58   120    1
    86    59   121    1
    87    59   122    1
    88    59   123    1
    89    60    61    2
    90     1    47    1
    91     1    62    1
    92     2    63    1
    93     3    64    1
    94     4    65    1
    95     5     6    1
    96     7     8    2
    97     9    78    1
    98    15    79    1
    99    18    80    1
   100    18    81    1
   101    19    82    1
   102    19    83    1
   103    20    23    1
   104    21    84    1
   105    21    85    1
   106    22    86    1
   107    22    87    1
   108    27    45    1
   109    28    34    1
   110    32    58    1
   111    33    46    2
   112    36    51    1
   113    36    66    1
   114    37    52    1
   115    37    67    1
   116    38    53    1
   117    38    68    1
   118    42    48    1
   119    42    72    1
   120    43    44    2
   121    60    73    1
   122    61    74    1
   123    39    69    1
   124    39    57    1
   125    40    70    1
   126    40    50    1
   127    41    71    1
   128    41    49    1
