@<TRIPOS>MOLECULE
*****
 123 128 0 0 0
SMALL
GASTEIGER

@<TRIPOS>ATOM
     1 C         3.087891   3.648831   0.601907 C.3        1 UNL1     0.0009
     2 C         4.143249   4.634315   -0.560882 C.2        1 UNL1     -0.0787
     3 C         5.450166   5.043163   -1.030834 C.2        1 UNL1     -0.0649
     4 C         5.819143   6.000377   -2.377666 C.2        1 UNL1     -0.0542
     5 C         6.829626   6.364672   -3.301403 C.2        1 UNL1     0.0115
     6 C         8.347432   6.252049   -3.612697 C.3        1 UNL1     -0.0348
     7 C         6.404657   7.068654   -4.680099 C.2        1 UNL1     0.2441
     8 O         6.512613   8.271702   -4.873872 O.2        1 UNL1     -0.2702
     9 N         6.146293   6.181295   -5.73934 N.am        1 UNL1     -0.2772
     10 C         4.828357   5.786154   -5.724146 C.2        1 UNL1     0.1049
     11 C         4.527619   4.793879   -4.906118 C.2        1 UNL1     0.0801
     12 C         2.493795   6.671361   -5.570656 C.ar        1 UNL1     0.0753
     13 C         2.28026   5.707811   -4.534036 C.ar        1 UNL1     0.0305
     14 C         3.250959   4.650494   -4.260397 C.2        1 UNL1     0.0924
     15 N         5.333536   3.956727   -4.230691 N.pl3        1 UNL1     -0.3170
     16 C         4.507805   2.948943   -3.620124 C.3        1 UNL1     0.1275
     17 N         3.174323   3.625657   -3.416145 N.2        1 UNL1     -0.2557
     18 C         4.275343   1.861189   -4.664372 C.3        1 UNL1     0.0016
     19 C         5.624934   1.357242   -5.150408 C.3        1 UNL1     0.0026
     20 N         6.368849   0.838996   -4.010654 N.3        1 UNL1     -0.3018
     21 C         6.589296   1.796404   -2.924771 C.3        1 UNL1     0.0026
     22 C         5.220557   2.286118   -2.448716 C.3        1 UNL1     0.0016
     23 C         7.532736   0.068128   -4.400238 C.3        1 UNL1     0.0012
     24 C         7.107792   -1.265808   -5.03411 C.3        1 UNL1     -0.0339
     25 C         8.105248   -2.388353   -4.703913 C.3        1 UNL1     -0.0615
     26 C         5.698042   -1.624296   -4.597223 C.3        1 UNL1     -0.0615
     27 C         1.51175   7.600548   -5.905797 C.ar        1 UNL1     0.1347
     28 C         0.266441   7.637864   -5.304246 C.ar        1 UNL1     0.0342
     29 C         0.096666   6.711673   -4.253289 C.ar        1 UNL1     0.1435
     30 C         1.084691   5.798797   -3.88223 C.ar        1 UNL1     0.0774
     31 O         -1.097435   6.549786   -3.642616 O.3        1 UNL1     -0.4436
     32 C         -1.011111   5.262654   -3.012765 C.3        1 UNL1     0.3143
     33 C         0.471974   5.006589   -2.836405 C.2        1 UNL1     0.2504
     34 C         -0.918094   8.4332   -5.777971 C.3        1 UNL1     -0.0327
     35 O         -1.571071   5.392308   -1.700177 O.2        1 UNL1     -0.4528
     36 C         -3.037803   1.995067   -0.854283 C.3        1 UNL1     0.0854
     37 C         -2.328778   0.586954   -0.80928 C.3        1 UNL1     0.0236
     38 C         -2.478592   -0.201106   0.579338 C.3        1 UNL1     0.1131
     39 C         -2.12963   0.529439   1.938308 C.3        1 UNL1     0.0200
     40 C         -0.762819   1.477704   2.061018 C.3        1 UNL1     0.0661
     41 C         0.804522   1.026866   1.59433 C.3        1 UNL1     0.0091
     42 C         2.184232   2.035672   0.927911 C.3        1 UNL1     0.0661
     43 C         3.761531   6.590871   -6.337876 C.2        1 UNL1     0.2131
     44 O         3.904743   7.060149   -7.452329 O.2        1 UNL1     -0.2851
     45 O         1.816763   8.533098   -6.895118 O.3        1 UNL1     -0.5056
     46 O         1.024696   4.320821   -2.005698 O.2        1 UNL1     -0.2836
     47 C         3.076467   4.30602   2.008305 C.3        1 UNL1     -0.0566
     48 O         3.198045   1.461596   1.845372 O.3        1 UNL1     -0.3909
     49 C         0.720636   -0.221807   0.745053 C.3        1 UNL1     -0.0577
     50 O         -1.030796   2.800031   1.639873 O.3        1 UNL1     -0.3910
     51 O         -3.559853   2.461329   0.369439 O.3        1 UNL1     -0.3753
     52 C         -0.99791   0.579168   -1.630059 C.3        1 UNL1     -0.0564
     53 O         -2.111651   -1.653478   0.488254 O.3        1 UNL1     -0.4608
     54 C         -1.462825   -2.371995   1.458146 C.2        1 UNL1     0.3042
     55 O         -0.277621   -2.70185   1.47618 O.2        1 UNL1     -0.2512
     56 C         -2.333198   -2.720573   2.631882 C.3        1 UNL1     0.0332
     57 C         -3.494391   1.107787   2.539237 C.3        1 UNL1     -0.0567
     58 C         -1.576716   4.240835   -4.026425 C.3        1 UNL1     0.0210
     59 C         -4.983636   2.440665   0.460429 C.3        1 UNL1     0.0372
     60 C         -2.211066   3.09774   -1.416225 C.2        1 UNL1     -0.0208
     61 C         -2.026491   4.346096   -0.984621 C.2        1 UNL1     0.0882
     62 H         2.198516   4.017709   0.076881 H        1 UNL1     0.0365
     63 H         3.378579   5.184396   -1.113295 H        1 UNL1     0.0576
     64 H         6.366352   4.610333   -0.622949 H        1 UNL1     0.0615
     65 H         4.858179   6.442565   -2.654254 H        1 UNL1     0.0622
     66 H         -3.875342   1.860167   -1.553123 H        1 UNL1     0.0645
     67 H         -2.93605   -0.04068   -1.484451 H        1 UNL1     0.0362
     68 H         -3.570323   -0.340401   0.594933 H        1 UNL1     0.0741
     69 H         -1.969285   -0.21786   2.703973 H        1 UNL1     0.0359
     70 H         -0.678988   1.549787   3.162306 H        1 UNL1     0.0600
     71 H         1.179789   0.613768   2.551138 H        1 UNL1     0.0348
     72 H         1.497942   2.744076   1.414209 H        1 UNL1     0.0602
     73 H         -1.829439   2.801246   -2.361583 H        1 UNL1     0.0628
     74 H         -2.33473   4.711612   -0.004507 H        1 UNL1     0.1022
     75 H         8.952483   6.487711   -2.704176 H        1 UNL1     0.0279
     76 H         8.714122   5.266038   -3.88908 H        1 UNL1     0.0279
     77 H         8.696595   7.025538   -4.312341 H        1 UNL1     0.0279
     78 H         6.71784   5.345799   -5.632762 H        1 UNL1     0.1553
     79 H         6.297228   3.802156   -4.463799 H        1 UNL1     0.1484
     80 H         3.68476   1.054006   -4.214444 H        1 UNL1     0.0317
     81 H         3.690089   2.245867   -5.506483 H        1 UNL1     0.0317
     82 H         6.191615   2.145417   -5.667674 H        1 UNL1     0.0428
     83 H         5.435897   0.583778   -5.895438 H        1 UNL1     0.0428
     84 H         7.079526   1.360696   -2.048618 H        1 UNL1     0.0428
     85 H         7.260743   2.611431   -3.228425 H        1 UNL1     0.0428
     86 H         5.413205   2.877658   -1.572956 H        1 UNL1     0.0317
     87 H         4.634785   1.443307   -2.061886 H        1 UNL1     0.0317
     88 H         8.091824   0.64737   -5.146693 H        1 UNL1     0.0429
     89 H         8.206351   -0.094725   -3.549065 H        1 UNL1     0.0429
     90 H         7.062933   -1.147771   -6.123269 H        1 UNL1     0.0308
     91 H         8.36869   -2.386668   -3.641981 H        1 UNL1     0.0233
     92 H         7.690709   -3.36379   -4.969034 H        1 UNL1     0.0233
     93 H         9.04298   -2.292021   -5.264461 H        1 UNL1     0.0233
     94 H         5.531417   -2.701468   -4.705715 H        1 UNL1     0.0233
     95 H         5.55605   -1.365583   -3.544195 H        1 UNL1     0.0233
     96 H         4.948936   -1.096865   -5.194405 H        1 UNL1     0.0233
     97 H         -1.774171   7.80052   -5.992632 H        1 UNL1     0.0280
     98 H         -1.259492   9.155482   -5.024969 H        1 UNL1     0.0280
     99 H         -0.652175   8.978718   -6.698184 H        1 UNL1     0.0280
     100 H         2.640825   8.972336   -6.77844 H        1 UNL1     0.2922
     101 H         2.127408   4.817513   2.167418 H        1 UNL1     0.0236
     102 H         3.928782   4.962101   2.1818 H        1 UNL1     0.0236
     103 H         3.129496   3.556916   2.815909 H        1 UNL1     0.0236
     104 H         2.771064   1.336011   2.715364 H        1 UNL1     0.2098
     105 H         1.647758   -0.486512   0.242871 H        1 UNL1     0.0234
     106 H         0.304944   -1.091464   1.253801 H        1 UNL1     0.0234
     107 H         0.0   0.0   0.0 H        1 UNL1     0.0234
     108 H         -1.33232   2.753535   0.712139 H        1 UNL1     0.2098
     109 H         -1.163284   0.804855   -2.692805 H        1 UNL1     0.0234
     110 H         -0.238678   1.257046   -1.225348 H        1 UNL1     0.0234
     111 H         -0.514119   -0.406415   -1.60728 H        1 UNL1     0.0234
     112 H         -1.751181   -3.273184   3.375671 H        1 UNL1     0.0342
     113 H         -2.796546   -1.839849   3.07401 H        1 UNL1     0.0342
     114 H         -3.138936   -3.378459   2.278136 H        1 UNL1     0.0342
     115 H         -4.136329   1.535417   1.756781 H        1 UNL1     0.0234
     116 H         -4.087403   0.37033   3.083795 H        1 UNL1     0.0234
     117 H         -3.34977   1.981735   3.197447 H        1 UNL1     0.0234
     118 H         -2.545363   3.824477   -3.698744 H        1 UNL1     0.0309
     119 H         -1.68635   4.651844   -5.035016 H        1 UNL1     0.0309
     120 H         -0.941867   3.35382   -4.127802 H        1 UNL1     0.0309
     121 H         -5.279003   3.202295   1.181564 H        1 UNL1     0.0524
     122 H         -5.467806   2.686668   -0.49931 H        1 UNL1     0.0524
     123 H         -5.325215   1.462572   0.787157 H        1 UNL1     0.0524
@<TRIPOS>BOND
     1     1     2    1
     2     1    42    1
     3     2     3    2
     4     3     4    1
     5     4     5    2
     6     5     7    1
     7     6    75    1
     8     6    76    1
     9     6    77    1
    10     7     9   am
    11     9    10    1
    12    10    11    2
    13    10    43    1
    14    11    14    1
    15    11    15    1
    16    12    13   ar
    17    12    27   ar
    18    12    43    1
    19    13    14    1
    20    13    30   ar
    21    14    17    2
    22    15    16    1
    23    16    17    1
    24    16    18    1
    25    16    22    1
    26    18    19    1
    27    19    20    1
    28    20    21    1
    29    21    22    1
    30    23    24    1
    31    23    88    1
    32    23    89    1
    33    24    25    1
    34    24    26    1
    35    24    90    1
    36    25    91    1
    37    25    92    1
    38    25    93    1
    39    26    94    1
    40    26    95    1
    41    26    96    1
    42    27    28   ar
    43    28    29   ar
    44    29    30   ar
    45    29    31    1
    46    30    33    1
    47    31    32    1
    48    32    33    1
    49    32    35    1
    50    34    97    1
    51    34    98    1
    52    34    99    1
    53    35    61    1
    54    36    37    1
    55    36    60    1
    56    37    38    1
    57    38    39    1
    58    39    40    1
    59    40    41    1
    60    41    42    1
    61    45   100    1
    62    47   101    1
    63    47   102    1
    64    47   103    1
    65    48   104    1
    66    49   105    1
    67    49   106    1
    68    49   107    1
    69    50   108    1
    70    51    59    1
    71    52   109    1
    72    52   110    1
    73    52   111    1
    74    53    54    1
    75    54    55    2
    76    54    56    1
    77    56   112    1
    78    56   113    1
    79    56   114    1
    80    57   115    1
    81    57   116    1
    82    57   117    1
    83    58   118    1
    84    58   119    1
    85    58   120    1
    86    59   121    1
    87    59   122    1
    88    59   123    1
    89    60    61    2
    90     1    47    1
    91     1    62    1
    92     2    63    1
    93     3    64    1
    94     4    65    1
    95     5     6    1
    96     7     8    2
    97     9    78    1
    98    15    79    1
    99    18    80    1
   100    18    81    1
   101    19    82    1
   102    19    83    1
   103    20    23    1
   104    21    84    1
   105    21    85    1
   106    22    86    1
   107    22    87    1
   108    27    45    1
   109    28    34    1
   110    32    58    1
   111    33    46    2
   112    36    51    1
   113    36    66    1
   114    37    52    1
   115    37    67    1
   116    38    53    1
   117    38    68    1
   118    42    48    1
   119    42    72    1
   120    43    44    2
   121    60    73    1
   122    61    74    1
   123    39    69    1
   124    39    57    1
   125    40    70    1
   126    40    50    1
   127    41    71    1
   128    41    49    1
