@<TRIPOS>MOLECULE
*****
 123 128 0 0 0
SMALL
GASTEIGER

@<TRIPOS>ATOM
     1 C         -2.816984   1.354107   3.835394 C.3        1 UNL1     0.0009
     2 C         -4.308292   2.38206   4.230808 C.2        1 UNL1     -0.0787
     3 C         -4.910109   3.671339   4.498431 C.2        1 UNL1     -0.0649
     4 C         -6.551894   4.031268   4.701774 C.2        1 UNL1     -0.0542
     5 C         -7.527477   5.058179   4.67403 C.2        1 UNL1     0.0115
     6 C         -7.731086   6.596163   4.59358 C.3        1 UNL1     -0.0348
     7 C         -9.076672   4.654924   4.554162 C.2        1 UNL1     0.2441
     8 O         -9.841696   4.661241   5.508742 O.2        1 UNL1     -0.2702
     9 N         -9.556967   4.546861   3.237427 N.am        1 UNL1     -0.2772
     10 C         -9.356706   3.273417   2.756224 C.2        1 UNL1     0.1049
     11 C         -8.155959   3.017224   2.269608 C.2        1 UNL1     0.0801
     12 C         -9.679535   0.861073   3.333903 C.ar        1 UNL1     0.0753
     13 C         -8.302738   0.675344   2.989602 C.ar        1 UNL1     0.0305
     14 C         -7.533255   1.722246   2.321065 C.2        1 UNL1     0.0924
     15 N         -7.148294   3.854924   1.970615 N.pl3        1 UNL1     -0.3170
     16 C         -6.12356   3.091321   1.30949 C.3        1 UNL1     0.1275
     17 N         -6.292007   1.690175   1.844407 N.2        1 UNL1     -0.2557
     18 C         -6.491116   3.02688   -0.169851 C.3        1 UNL1     0.0016
     19 C         -6.653166   4.445228   -0.692936 C.3        1 UNL1     0.0026
     20 N         -5.401375   5.162727   -0.494839 N.3        1 UNL1     -0.3018
     21 C         -4.933021   5.224893   0.891215 C.3        1 UNL1     0.0026
     22 C         -4.772696   3.78947   1.394954 C.3        1 UNL1     0.0016
     23 C         -5.348424   6.415645   -1.2215 C.3        1 UNL1     0.0012
     24 C         -6.741562   6.790449   -1.751071 C.3        1 UNL1     -0.0339
     25 C         -7.798122   5.752568   -1.338106 C.3        1 UNL1     -0.0615
     26 C         -7.117435   8.186436   -1.28554 C.3        1 UNL1     -0.0615
     27 C         -10.438826   -0.181281   3.8603 C.ar        1 UNL1     0.1347
     28 C         -9.943998   -1.459339   4.049408 C.ar        1 UNL1     0.0342
     29 C         -8.573011   -1.605979   3.749315 C.ar        1 UNL1     0.1435
     30 C         -7.790609   -0.56143   3.255367 C.ar        1 UNL1     0.0774
     31 O         -7.970956   -2.81502   3.776787 O.3        1 UNL1     -0.4436
     32 C         -6.784348   -2.647311   2.986403 C.3        1 UNL1     0.3143
     33 C         -6.493727   -1.160465   3.018684 C.2        1 UNL1     0.2504
     34 C         -10.758487   -2.681786   4.369301 C.3        1 UNL1     -0.0327
     35 O         -5.713513   -3.296913   3.682523 O.2        1 UNL1     -0.4528
     36 C         -3.302073   -4.487714   1.003897 C.3        1 UNL1     0.0854
     37 C         -2.558587   -3.653792   -0.109353 C.3        1 UNL1     0.0236
     38 C         -0.963031   -3.814402   -0.121579 C.3        1 UNL1     0.1131
     39 C         -0.144081   -3.620097   1.217763 C.3        1 UNL1     0.0200
     40 C         -0.499081   -2.358514   2.249664 C.3        1 UNL1     0.0661
     41 C         -0.669199   -0.729973   1.806353 C.3        1 UNL1     0.0091
     42 C         -1.739041   0.587453   2.502937 C.3        1 UNL1     0.0661
     43 C         -10.296538   2.175695   3.028393 C.2        1 UNL1     0.2131
     44 O         -11.495847   2.342744   2.89998 O.2        1 UNL1     -0.2851
     45 O         -11.758535   0.095339   4.211425 O.3        1 UNL1     -0.5056
     46 O         -5.428268   -0.59815   2.898463 O.2        1 UNL1     -0.2836
     47 C         -1.922953   1.194265   5.094417 C.3        1 UNL1     -0.0566
     48 O         -0.650551   1.592103   2.573545 O.3        1 UNL1     -0.3909
     49 C         -0.786572   -0.643709   0.300937 C.3        1 UNL1     -0.0577
     50 O         -1.523313   -2.722911   3.152929 O.3        1 UNL1     -0.3910
     51 O         -2.475306   -5.125754   1.950888 O.3        1 UNL1     -0.3753
     52 C         -3.257747   -2.279956   -0.371458 C.3        1 UNL1     -0.0564
     53 O         -0.318056   -3.307844   -1.378453 O.3        1 UNL1     -0.4608
     54 C         0.992957   -3.49528   -1.730652 C.2        1 UNL1     0.3042
     55 O         1.986016   -2.989422   -1.209328 O.2        1 UNL1     -0.2512
     56 C         1.180332   -4.481317   -2.848389 C.3        1 UNL1     0.0332
     57 C         0.080616   -5.067594   1.859977 C.3        1 UNL1     -0.0567
     58 C         -7.160439   -3.050863   1.541678 C.3        1 UNL1     0.0210
     59 C         -1.48245   -5.987234   1.395951 C.3        1 UNL1     0.0372
     60 C         -4.331735   -3.73502   1.770974 C.2        1 UNL1     -0.0208
     61 C         -4.575986   -3.695422   3.081515 C.2        1 UNL1     0.0882
     62 H         -3.462091   0.468145   3.79514 H        1 UNL1     0.0365
     63 H         -5.066308   1.604697   4.347378 H        1 UNL1     0.0576
     64 H         -4.334709   4.597173   4.428768 H        1 UNL1     0.0615
     65 H         -7.018307   3.051956   4.839213 H        1 UNL1     0.0622
     66 H         -3.847416   -5.264155   0.449112 H        1 UNL1     0.0645
     67 H         -2.837016   -4.156637   -1.051788 H        1 UNL1     0.0362
     68 H         -0.887932   -4.887111   -0.356479 H        1 UNL1     0.0741
     69 H         0.892752   -3.437886   0.968397 H        1 UNL1     0.0359
     70 H         0.421471   -2.349954   2.864132 H        1 UNL1     0.0600
     71 H         0.369011   -0.377366   1.963657 H        1 UNL1     0.0348
     72 H         -1.673692   -0.190998   3.276926 H        1 UNL1     0.0602
     73 H         -5.002232   -3.26963   1.091935 H        1 UNL1     0.0628
     74 H         -3.909099   -4.096512   3.845469 H        1 UNL1     0.1022
     75 H         -6.834406   7.087345   4.144427 H        1 UNL1     0.0279
     76 H         -8.536179   6.946007   3.951315 H        1 UNL1     0.0279
     77 H         -7.766052   7.072901   5.584135 H        1 UNL1     0.0279
     78 H         -9.045448   5.186631   2.633174 H        1 UNL1     0.1553
     79 H         -7.267083   4.841412   1.830387 H        1 UNL1     0.1484
     80 H         -5.703801   2.488025   -0.710718 H        1 UNL1     0.0317
     81 H         -7.417135   2.461203   -0.318681 H        1 UNL1     0.0317
     82 H         -7.489648   4.966273   -0.204343 H        1 UNL1     0.0428
     83 H         -6.91686   4.375969   -1.748739 H        1 UNL1     0.0428
     84 H         -3.952773   5.698835   1.002144 H        1 UNL1     0.0428
     85 H         -5.596721   5.834336   1.520022 H        1 UNL1     0.0428
     86 H         -4.305151   3.871323   2.358639 H        1 UNL1     0.0317
     87 H         -4.022409   3.262634   0.792783 H        1 UNL1     0.0317
     88 H         -5.01582   7.198949   -0.527884 H        1 UNL1     0.0429
     89 H         -4.613424   6.373694   -2.035619 H        1 UNL1     0.0429
     90 H         -6.708638   6.838567   -2.845974 H        1 UNL1     0.0308
     91 H         -8.434479   6.13159   -0.532815 H        1 UNL1     0.0233
     92 H         -8.423817   5.478054   -2.190607 H        1 UNL1     0.0233
     93 H         -7.348379   4.820106   -0.976054 H        1 UNL1     0.0233
     94 H         -8.178937   8.375849   -1.478341 H        1 UNL1     0.0233
     95 H         -6.948484   8.27946   -0.209081 H        1 UNL1     0.0233
     96 H         -6.530559   8.950945   -1.802328 H        1 UNL1     0.0233
     97 H         -10.142795   -3.496382   4.738878 H        1 UNL1     0.0280
     98 H         -11.503766   -2.489309   5.152096 H        1 UNL1     0.0280
     99 H         -11.278892   -3.026638   3.460813 H        1 UNL1     0.0280
     100 H         -12.095208   0.902465   3.863833 H        1 UNL1     0.2922
     101 H         -2.483199   1.485698   5.982588 H        1 UNL1     0.0236
     102 H         -0.974498   1.724729   5.0168 H        1 UNL1     0.0236
     103 H         -1.642968   0.142595   5.272721 H        1 UNL1     0.0236
     104 H         0.176749   1.116359   2.783817 H        1 UNL1     0.2098
     105 H         -0.656335   -1.591821   -0.21475 H        1 UNL1     0.0234
     106 H         -1.683372   -0.138678   -0.057698 H        1 UNL1     0.0234
     107 H         0.0   0.0   0.0 H        1 UNL1     0.0234
     108 H         -1.115136   -2.805799   4.036269 H        1 UNL1     0.2098
     109 H         -2.538804   -1.489871   -0.629526 H        1 UNL1     0.0234
     110 H         -4.035831   -2.33281   -1.14057 H        1 UNL1     0.0234
     111 H         -3.78845   -1.919369   0.519765 H        1 UNL1     0.0234
     112 H         1.708938   -5.365663   -2.479806 H        1 UNL1     0.0342
     113 H         0.235353   -4.756854   -3.314154 H        1 UNL1     0.0342
     114 H         1.806747   -4.011385   -3.619059 H        1 UNL1     0.0342
     115 H         0.655714   -5.014887   2.794681 H        1 UNL1     0.0234
     116 H         -0.844328   -5.606975   2.073508 H        1 UNL1     0.0234
     117 H         0.724763   -5.724235   1.250191 H        1 UNL1     0.0234
     118 H         -8.252806   -3.047372   1.381276 H        1 UNL1     0.0309
     119 H         -6.684939   -2.421961   0.782346 H        1 UNL1     0.0309
     120 H         -6.873696   -4.081313   1.304914 H        1 UNL1     0.0309
     121 H         -0.807216   -6.27408   2.201639 H        1 UNL1     0.0524
     122 H         -1.915919   -6.912365   0.980891 H        1 UNL1     0.0524
     123 H         -0.93369   -5.472522   0.612352 H        1 UNL1     0.0524
@<TRIPOS>BOND
     1     1     2    1
     2     1    42    1
     3     2     3    2
     4     3     4    1
     5     4     5    2
     6     5     7    1
     7     6    75    1
     8     6    76    1
     9     6    77    1
    10     7     9   am
    11     9    10    1
    12    10    11    2
    13    10    43    1
    14    11    14    1
    15    11    15    1
    16    12    13   ar
    17    12    27   ar
    18    12    43    1
    19    13    14    1
    20    13    30   ar
    21    14    17    2
    22    15    16    1
    23    16    17    1
    24    16    18    1
    25    16    22    1
    26    18    19    1
    27    19    20    1
    28    20    21    1
    29    21    22    1
    30    23    24    1
    31    23    88    1
    32    23    89    1
    33    24    25    1
    34    24    26    1
    35    24    90    1
    36    25    91    1
    37    25    92    1
    38    25    93    1
    39    26    94    1
    40    26    95    1
    41    26    96    1
    42    27    28   ar
    43    28    29   ar
    44    29    30   ar
    45    29    31    1
    46    30    33    1
    47    31    32    1
    48    32    33    1
    49    32    35    1
    50    34    97    1
    51    34    98    1
    52    34    99    1
    53    35    61    1
    54    36    37    1
    55    36    60    1
    56    37    38    1
    57    38    39    1
    58    39    40    1
    59    40    41    1
    60    41    42    1
    61    45   100    1
    62    47   101    1
    63    47   102    1
    64    47   103    1
    65    48   104    1
    66    49   105    1
    67    49   106    1
    68    49   107    1
    69    50   108    1
    70    51    59    1
    71    52   109    1
    72    52   110    1
    73    52   111    1
    74    53    54    1
    75    54    55    2
    76    54    56    1
    77    56   112    1
    78    56   113    1
    79    56   114    1
    80    57   115    1
    81    57   116    1
    82    57   117    1
    83    58   118    1
    84    58   119    1
    85    58   120    1
    86    59   121    1
    87    59   122    1
    88    59   123    1
    89    60    61    2
    90     1    47    1
    91     1    62    1
    92     2    63    1
    93     3    64    1
    94     4    65    1
    95     5     6    1
    96     7     8    2
    97     9    78    1
    98    15    79    1
    99    18    80    1
   100    18    81    1
   101    19    82    1
   102    19    83    1
   103    20    23    1
   104    21    84    1
   105    21    85    1
   106    22    86    1
   107    22    87    1
   108    27    45    1
   109    28    34    1
   110    32    58    1
   111    33    46    2
   112    36    51    1
   113    36    66    1
   114    37    52    1
   115    37    67    1
   116    38    53    1
   117    38    68    1
   118    42    48    1
   119    42    72    1
   120    43    44    2
   121    60    73    1
   122    61    74    1
   123    39    69    1
   124    39    57    1
   125    40    70    1
   126    40    50    1
   127    41    71    1
   128    41    49    1
