@<TRIPOS>MOLECULE
*****
 123 128 0 0 0
SMALL
GASTEIGER

@<TRIPOS>ATOM
     1 C         1.40249   3.655443   -2.093121 C.3        1 UNL1     0.0009
     2 C         2.570538   5.022488   -1.641581 C.2        1 UNL1     -0.0787
     3 C         2.83618   6.276828   -0.969189 C.2        1 UNL1     -0.0649
     4 C         4.320532   7.073674   -0.801576 C.2        1 UNL1     -0.0542
     5 C         5.042065   8.040073   -0.058245 C.2        1 UNL1     0.0115
     6 C         4.910686   9.151949   1.018692 C.3        1 UNL1     -0.0348
     7 C         6.644658   8.053348   -0.150486 C.2        1 UNL1     0.2441
     8 O         7.265573   8.861677   -0.826944 O.2        1 UNL1     -0.2702
     9 N         7.295905   7.245487   0.797875 N.am        1 UNL1     -0.2772
     10 C         7.441737   5.964156   0.318033 C.2        1 UNL1     0.1049
     11 C         6.396338   5.168812   0.455113 C.2        1 UNL1     0.0801
     12 C         8.213424   4.669531   -1.678408 C.ar        1 UNL1     0.0753
     13 C         6.964583   3.973414   -1.61188 C.ar        1 UNL1     0.0305
     14 C         6.072307   4.110729   -0.462951 C.2        1 UNL1     0.0924
     15 N         5.273941   5.333922   1.17587 N.pl3        1 UNL1     -0.3170
     16 C         4.532051   4.102272   1.122114 C.3        1 UNL1     0.1275
     17 N         4.937183   3.474055   -0.188967 N.2        1 UNL1     -0.2557
     18 C         5.084707   3.193416   2.215849 C.3        1 UNL1     0.0016
     19 C         4.994132   3.923292   3.546512 C.3        1 UNL1     0.0026
     20 N         3.600522   4.261325   3.800702 N.3        1 UNL1     -0.3018
     21 C         2.962359   5.083559   2.77063 C.3        1 UNL1     0.0026
     22 C         3.06075   4.329285   1.443496 C.3        1 UNL1     0.0016
     23 C         3.363454   4.687227   5.165638 C.3        1 UNL1     0.0012
     24 C         4.457035   5.66569   5.622196 C.3        1 UNL1     -0.0339
     25 C         5.531694   5.853416   4.538718 C.3        1 UNL1     -0.0615
     26 C         3.834419   6.990418   6.02744 C.3        1 UNL1     -0.0615
     27 C         9.112403   4.441432   -2.717603 C.ar        1 UNL1     0.1347
     28 C         8.891378   3.515835   -3.721828 C.ar        1 UNL1     0.0342
     29 C         7.634097   2.877928   -3.662808 C.ar        1 UNL1     0.1435
     30 C         6.708261   3.122814   -2.647879 C.ar        1 UNL1     0.0774
     31 O         7.314105   1.871707   -4.505501 O.3        1 UNL1     -0.4436
     32 C         6.226673   1.191064   -3.861228 C.3        1 UNL1     0.3143
     33 C         5.614374   2.216531   -2.92864 C.2        1 UNL1     0.2504
     34 C         9.908907   3.037959   -4.720011 C.3        1 UNL1     -0.0327
     35 O         5.247368   0.90485   -4.867358 O.2        1 UNL1     -0.4528
     36 C         3.506942   -2.277991   -3.749984 C.3        1 UNL1     0.0854
     37 C         2.741633   -2.574915   -2.403262 C.3        1 UNL1     0.0236
     38 C         1.234548   -3.09294   -2.582402 C.3        1 UNL1     0.1131
     39 C         0.233838   -2.29168   -3.509134 C.3        1 UNL1     0.0200
     40 C         0.172293   -0.625999   -3.444652 C.3        1 UNL1     0.0661
     41 C         0.033426   0.309427   -2.036354 C.3        1 UNL1     0.0091
     42 C         0.692746   1.976001   -1.644904 C.3        1 UNL1     0.0661
     43 C         8.559013   5.576776   -0.556029 C.2        1 UNL1     0.2131
     44 O         9.698635   5.911051   -0.287221 O.2        1 UNL1     -0.2851
     45 O         10.285164   5.193653   -2.732839 O.3        1 UNL1     -0.5056
     46 O         4.474543   2.283166   -2.525901 O.2        1 UNL1     -0.2836
     47 C         0.416962   4.130042   -3.194698 C.3        1 UNL1     -0.0566
     48 O         -0.590262   2.480107   -1.098202 O.3        1 UNL1     -0.3909
     49 C         0.314062   -0.56888   -0.837473 C.3        1 UNL1     -0.0577
     50 O         1.131922   -0.05512   -4.311215 O.3        1 UNL1     -0.3910
     51 O         2.730262   -2.333983   -4.925171 O.3        1 UNL1     -0.3753
     52 C         3.148329   -1.57656   -1.270639 C.3        1 UNL1     -0.0564
     53 O         0.654328   -3.69506   -1.33616 O.3        1 UNL1     -0.4608
     54 C         0.594768   -5.034667   -1.053606 C.2        1 UNL1     0.3042
     55 O         0.938582   -5.967003   -1.779125 O.2        1 UNL1     -0.2512
     56 C         0.097602   -5.335583   0.33167 C.3        1 UNL1     0.0332
     57 C         0.255483   -2.981385   -4.952052 C.3        1 UNL1     -0.0567
     58 C         6.857909   0.061111   -3.014897 C.3        1 UNL1     0.0210
     59 C         1.319691   -2.352078   -4.711097 C.3        1 UNL1     0.0372
     60 C         4.242907   -0.984771   -3.78308 C.2        1 UNL1     -0.0208
     61 C         4.308588   -0.051606   -4.733677 C.2        1 UNL1     0.0882
     62 H         2.226601   3.147362   -2.608297 H        1 UNL1     0.0365
     63 H         3.460634   4.721921   -2.198231 H        1 UNL1     0.0576
     64 H         2.084333   6.760179   -0.341331 H        1 UNL1     0.0615
     65 H         4.970307   6.568363   -1.521253 H        1 UNL1     0.0622
     66 H         4.274009   -3.062853   -3.810377 H        1 UNL1     0.0645
     67 H         3.238138   -3.477304   -2.006102 H        1 UNL1     0.0362
     68 H         1.426894   -4.039389   -3.110379 H        1 UNL1     0.0741
     69 H         -0.778715   -2.576347   -3.255937 H        1 UNL1     0.0359
     70 H         -0.796291   -0.451229   -3.950973 H        1 UNL1     0.0600
     71 H         -1.0682   0.40974   -1.97879 H        1 UNL1     0.0348
     72 H         0.705115   1.894877   -2.741526 H        1 UNL1     0.0602
     73 H         4.873242   -0.919743   -2.931201 H        1 UNL1     0.0628
     74 H         3.657108   -0.014495   -5.607424 H        1 UNL1     0.1022
     75 H         5.297333   8.792302   2.00266 H        1 UNL1     0.0279
     76 H         5.491764   10.056766   0.855216 H        1 UNL1     0.0279
     77 H         3.864216   9.3813   1.267686 H        1 UNL1     0.0279
     78 H         6.734868   7.193144   1.645563 H        1 UNL1     0.1553
     79 H         5.189198   5.987093   1.932917 H        1 UNL1     0.1484
     80 H         4.50825   2.260547   2.230666 H        1 UNL1     0.0317
     81 H         6.123598   2.916613   2.006716 H        1 UNL1     0.0317
     82 H         5.628543   4.821732   3.562076 H        1 UNL1     0.0428
     83 H         5.395004   3.258137   4.311967 H        1 UNL1     0.0428
     84 H         1.895859   5.256149   2.945561 H        1 UNL1     0.0428
     85 H         3.392805   6.093664   2.729126 H        1 UNL1     0.0428
     86 H         2.471235   4.893897   0.74516 H        1 UNL1     0.0317
     87 H         2.525055   3.374768   1.514382 H        1 UNL1     0.0317
     88 H         2.395658   5.204494   5.1988 H        1 UNL1     0.0429
     89 H         3.292277   3.827921   5.844829 H        1 UNL1     0.0429
     90 H         4.937214   5.271581   6.525701 H        1 UNL1     0.0308
     91 H         6.13729   4.950146   4.418472 H        1 UNL1     0.0233
     92 H         5.073493   6.108228   3.580213 H        1 UNL1     0.0233
     93 H         6.223514   6.671266   4.773965 H        1 UNL1     0.0233
     94 H         2.750182   6.880194   6.137515 H        1 UNL1     0.0233
     95 H         4.23973   7.314848   6.989953 H        1 UNL1     0.0233
     96 H         4.028952   7.767198   5.282633 H        1 UNL1     0.0233
     97 H         9.534714   2.214439   -5.320865 H        1 UNL1     0.0280
     98 H         10.191915   3.824733   -5.431453 H        1 UNL1     0.0280
     99 H         10.813252   2.69628   -4.190379 H        1 UNL1     0.0280
     100 H         10.247353   5.966993   -3.267757 H        1 UNL1     0.2922
     101 H         0.943047   4.759058   -3.912493 H        1 UNL1     0.0236
     102 H         -0.469847   4.62013   -2.79424 H        1 UNL1     0.0236
     103 H         0.027529   3.288955   -3.792282 H        1 UNL1     0.0236
     104 H         -1.289657   1.848671   -1.357248 H        1 UNL1     0.2098
     105 H         -0.23677   -1.506065   -0.828551 H        1 UNL1     0.0234
     106 H         1.371106   -0.750105   -0.643204 H        1 UNL1     0.0234
     107 H         0.0   0.0   0.0 H        1 UNL1     0.0234
     108 H         1.198424   0.892886   -4.086203 H        1 UNL1     0.2098
     109 H         2.296229   -1.300116   -0.634073 H        1 UNL1     0.0234
     110 H         3.968235   -1.945928   -0.645287 H        1 UNL1     0.0234
     111 H         3.531102   -0.632736   -1.681282 H        1 UNL1     0.0234
     112 H         -0.943375   -5.01352   0.43161 H        1 UNL1     0.0342
     113 H         0.206916   -6.388712   0.586255 H        1 UNL1     0.0342
     114 H         0.699343   -4.756363   1.045516 H        1 UNL1     0.0342
     115 H         -0.536852   -2.588904   -5.604242 H        1 UNL1     0.0234
     116 H         1.202963   -2.870231   -5.483065 H        1 UNL1     0.0234
     117 H         0.001207   -4.055076   -4.93028 H        1 UNL1     0.0234
     118 H         7.675871   -0.451058   -3.551208 H        1 UNL1     0.0309
     119 H         7.227304   0.406585   -2.044125 H        1 UNL1     0.0309
     120 H         6.151292   -0.747974   -2.800002 H        1 UNL1     0.0309
     121 H         1.079725   -3.26829   -4.172276 H        1 UNL1     0.0524
     122 H         0.979439   -1.504627   -4.092961 H        1 UNL1     0.0524
     123 H         0.794896   -2.328026   -5.661941 H        1 UNL1     0.0524
@<TRIPOS>BOND
     1     1     2    1
     2     1    42    1
     3     2     3    2
     4     3     4    1
     5     4     5    2
     6     5     7    1
     7     6    75    1
     8     6    76    1
     9     6    77    1
    10     7     9   am
    11     9    10    1
    12    10    11    2
    13    10    43    1
    14    11    14    1
    15    11    15    1
    16    12    13   ar
    17    12    27   ar
    18    12    43    1
    19    13    14    1
    20    13    30   ar
    21    14    17    2
    22    15    16    1
    23    16    17    1
    24    16    18    1
    25    16    22    1
    26    18    19    1
    27    19    20    1
    28    20    21    1
    29    21    22    1
    30    23    24    1
    31    23    88    1
    32    23    89    1
    33    24    25    1
    34    24    26    1
    35    24    90    1
    36    25    91    1
    37    25    92    1
    38    25    93    1
    39    26    94    1
    40    26    95    1
    41    26    96    1
    42    27    28   ar
    43    28    29   ar
    44    29    30   ar
    45    29    31    1
    46    30    33    1
    47    31    32    1
    48    32    33    1
    49    32    35    1
    50    34    97    1
    51    34    98    1
    52    34    99    1
    53    35    61    1
    54    36    37    1
    55    36    60    1
    56    37    38    1
    57    38    39    1
    58    39    40    1
    59    40    41    1
    60    41    42    1
    61    45   100    1
    62    47   101    1
    63    47   102    1
    64    47   103    1
    65    48   104    1
    66    49   105    1
    67    49   106    1
    68    49   107    1
    69    50   108    1
    70    51    59    1
    71    52   109    1
    72    52   110    1
    73    52   111    1
    74    53    54    1
    75    54    55    2
    76    54    56    1
    77    56   112    1
    78    56   113    1
    79    56   114    1
    80    57   115    1
    81    57   116    1
    82    57   117    1
    83    58   118    1
    84    58   119    1
    85    58   120    1
    86    59   121    1
    87    59   122    1
    88    59   123    1
    89    60    61    2
    90     1    47    1
    91     1    62    1
    92     2    63    1
    93     3    64    1
    94     4    65    1
    95     5     6    1
    96     7     8    2
    97     9    78    1
    98    15    79    1
    99    18    80    1
   100    18    81    1
   101    19    82    1
   102    19    83    1
   103    20    23    1
   104    21    84    1
   105    21    85    1
   106    22    86    1
   107    22    87    1
   108    27    45    1
   109    28    34    1
   110    32    58    1
   111    33    46    2
   112    36    51    1
   113    36    66    1
   114    37    52    1
   115    37    67    1
   116    38    53    1
   117    38    68    1
   118    42    48    1
   119    42    72    1
   120    43    44    2
   121    60    73    1
   122    61    74    1
   123    39    69    1
   124    39    57    1
   125    40    70    1
   126    40    50    1
   127    41    71    1
   128    41    49    1
