@<TRIPOS>MOLECULE
*****
 123 128 0 0 0
SMALL
GASTEIGER

@<TRIPOS>ATOM
     1 C         5.117342   1.910481   0.402672 C.3        1 UNL1     0.0009
     2 C         6.559176   2.644205   -0.502756 C.2        1 UNL1     -0.0787
     3 C         7.859396   2.498065   -1.122528 C.2        1 UNL1     -0.0649
     4 C         8.731384   3.65618   -1.997035 C.2        1 UNL1     -0.0542
     5 C         9.769173   3.860371   -2.939573 C.2        1 UNL1     0.0115
     6 C         10.931328   3.163923   -3.699627 C.3        1 UNL1     -0.0348
     7 C         9.850741   5.264568   -3.713244 C.2        1 UNL1     0.2441
     8 O         10.648288   6.143056   -3.415412 O.2        1 UNL1     -0.2702
     9 N         9.126853   5.316618   -4.917166 N.am        1 UNL1     -0.2772
     10 C         7.82913   5.708153   -4.680655 C.2        1 UNL1     0.1049
     11 C         6.995474   4.758539   -4.296635 C.2        1 UNL1     0.0801
     12 C         6.463522   7.438575   -3.498247 C.ar        1 UNL1     0.0753
     13 C         5.715648   6.353663   -2.939446 C.ar        1 UNL1     0.0305
     14 C         5.874843   4.984596   -3.424591 C.2        1 UNL1     0.0924
     15 N         7.148342   3.423189   -4.296103 N.pl3        1 UNL1     -0.3170
     16 C         5.882916   2.836191   -3.943419 C.3        1 UNL1     0.1275
     17 N         5.202862   3.884537   -3.09712 N.2        1 UNL1     -0.2557
     18 C         5.06176   2.728229   -5.224726 C.3        1 UNL1     0.0016
     19 C         5.858695   1.934448   -6.24766 C.3        1 UNL1     0.0026
     20 N         6.146001   0.617195   -5.696907 N.3        1 UNL1     -0.3018
     21 C         6.880337   0.61969   -4.429976 C.3        1 UNL1     0.0026
     22 C         6.059619   1.418427   -3.415908 C.3        1 UNL1     0.0016
     23 C         6.634912   -0.315882   -6.692384 C.3        1 UNL1     0.0012
     24 C         5.510185   -0.704213   -7.664981 C.3        1 UNL1     -0.0339
     25 C         5.545803   0.156617   -8.938465 C.3        1 UNL1     -0.0615
     26 C         5.59062   -2.185804   -7.989323 C.3        1 UNL1     -0.0615
     27 C         6.220107   8.755588   -3.115698 C.ar        1 UNL1     0.1347
     28 C         5.231609   9.113487   -2.216348 C.ar        1 UNL1     0.0342
     29 C         4.540998   8.024896   -1.642597 C.ar        1 UNL1     0.1435
     30 C         4.798594   6.697969   -1.989193 C.ar        1 UNL1     0.0774
     31 O         3.476421   8.213648   -0.832624 O.3        1 UNL1     -0.4436
     32 C         2.783101   6.956668   -0.846098 C.3        1 UNL1     0.3143
     33 C         3.829116   5.931444   -1.234661 C.2        1 UNL1     0.2504
     34 C         4.746739   10.511205   -1.94917 C.3        1 UNL1     -0.0327
     35 O         2.397519   6.668383   0.503521 O.2        1 UNL1     -0.4528
     36 C         -0.795517   4.630321   0.260814 C.3        1 UNL1     0.0854
     37 C         -1.052772   3.267126   -0.489548 C.3        1 UNL1     0.0236
     38 C         -1.648326   2.093312   0.426541 C.3        1 UNL1     0.1131
     39 C         -0.945839   1.734287   1.797629 C.3        1 UNL1     0.0200
     40 C         0.716301   1.632115   1.894019 C.3        1 UNL1     0.0661
     41 C         1.720312   0.75412   0.845831 C.3        1 UNL1     0.0091
     42 C         3.43431   1.086935   0.28294 C.3        1 UNL1     0.0661
     43 C         7.445908   7.123104   -4.564856 C.2        1 UNL1     0.2131
     44 O         7.846279   7.940077   -5.374174 O.2        1 UNL1     -0.2851
     45 O         7.023273   9.748262   -3.673336 O.3        1 UNL1     -0.5056
     46 O         3.865498   4.752041   -0.963484 O.2        1 UNL1     -0.2836
     47 C         5.485099   1.660708   1.890069 C.3        1 UNL1     -0.0566
     48 O         3.908393   -0.294507   0.539806 O.3        1 UNL1     -0.3909
     49 C         0.922943   0.359733   -0.377344 C.3        1 UNL1     -0.0577
     50 O         1.282078   2.900724   2.155267 O.3        1 UNL1     -0.3910
     51 O         -0.951471   4.601438   1.661627 O.3        1 UNL1     -0.3753
     52 C         0.023852   2.996998   -1.590848 C.3        1 UNL1     -0.0564
     53 O         -2.207039   0.943136   -0.359119 O.3        1 UNL1     -0.4608
     54 C         -2.411971   -0.323503   0.122086 C.2        1 UNL1     0.3042
     55 O         -1.809026   -1.348738   -0.192856 O.2        1 UNL1     -0.2512
     56 C         -3.46497   -0.397728   1.190917 C.3        1 UNL1     0.0332
     57 C         -1.712027   2.529327   2.954799 C.3        1 UNL1     -0.0567
     58 C         1.731426   7.0493   -1.976111 C.3        1 UNL1     0.0210
     59 C         -1.337432   5.843879   2.247495 C.3        1 UNL1     0.0372
     60 C         0.52628   5.258089   -0.011067 C.2        1 UNL1     -0.0208
     61 C         1.40786   5.812255   0.822277 C.2        1 UNL1     0.0882
     62 H         4.620011   2.887109   0.363018 H        1 UNL1     0.0365
     63 H         6.269573   3.696808   -0.527803 H        1 UNL1     0.0576
     64 H         8.341558   1.522624   -1.218149 H        1 UNL1     0.0615
     65 H         8.217601   4.594534   -1.771198 H        1 UNL1     0.0622
     66 H         -1.546558   5.318561   -0.151872 H        1 UNL1     0.0645
     67 H         -1.908302   3.483458   -1.152743 H        1 UNL1     0.0362
     68 H         -2.612539   2.546714   0.702664 H        1 UNL1     0.0741
     69 H         -1.262244   0.745644   2.102392 H        1 UNL1     0.0359
     70 H         0.818461   1.081749   2.848859 H        1 UNL1     0.0600
     71 H         1.773079   -0.209042   1.390341 H        1 UNL1     0.0348
     72 H         3.293738   1.683538   1.195968 H        1 UNL1     0.0602
     73 H         0.66679   5.335726   -1.06058 H        1 UNL1     0.0628
     74 H         1.367059   5.727448   1.90873 H        1 UNL1     0.1022
     75 H         10.993674   2.08532   -3.417206 H        1 UNL1     0.0279
     76 H         10.843766   3.117779   -4.782804 H        1 UNL1     0.0279
     77 H         11.921492   3.527269   -3.387769 H        1 UNL1     0.0279
     78 H         9.095502   4.390225   -5.33775 H        1 UNL1     0.1553
     79 H         7.837534   2.94126   -4.843544 H        1 UNL1     0.1484
     80 H         4.105693   2.241692   -4.996724 H        1 UNL1     0.0317
     81 H         4.821758   3.720917   -5.620478 H        1 UNL1     0.0317
     82 H         6.784743   2.454095   -6.534565 H        1 UNL1     0.0428
     83 H         5.255637   1.871082   -7.153947 H        1 UNL1     0.0428
     84 H         7.013251   -0.377103   -3.998064 H        1 UNL1     0.0428
     85 H         7.905289   0.996284   -4.552319 H        1 UNL1     0.0428
     86 H         6.557438   1.287406   -2.473041 H        1 UNL1     0.0317
     87 H         5.086905   0.936631   -3.258434 H        1 UNL1     0.0317
     88 H         7.433382   0.178572   -7.260941 H        1 UNL1     0.0429
     89 H         7.07695   -1.204258   -6.223168 H        1 UNL1     0.0429
     90 H         4.542085   -0.557762   -7.171475 H        1 UNL1     0.0308
     91 H         6.509023   0.070165   -9.450162 H        1 UNL1     0.0233
     92 H         4.747597   -0.1357   -9.624778 H        1 UNL1     0.0233
     93 H         5.392408   1.22178   -8.726964 H        1 UNL1     0.0233
     94 H         4.918678   -2.427647   -8.81989 H        1 UNL1     0.0233
     95 H         6.608439   -2.447303   -8.292018 H        1 UNL1     0.0233
     96 H         5.310015   -2.798636   -7.128123 H        1 UNL1     0.0233
     97 H         3.935835   10.530137   -1.227154 H        1 UNL1     0.0280
     98 H         5.535801   11.150246   -1.531721 H        1 UNL1     0.0280
     99 H         4.384411   10.961844   -2.887647 H        1 UNL1     0.0280
     100 H         6.549959   10.445049   -4.092961 H        1 UNL1     0.2922
     101 H         4.618349   1.269556   2.422422 H        1 UNL1     0.0236
     102 H         5.904913   2.538058   2.380983 H        1 UNL1     0.0236
     103 H         6.256821   0.880682   2.000508 H        1 UNL1     0.0236
     104 H         4.307805   -0.308245   1.431574 H        1 UNL1     0.2098
     105 H         0.707362   1.180531   -1.056776 H        1 UNL1     0.0234
     106 H         1.324505   -0.490884   -0.927913 H        1 UNL1     0.0234
     107 H         0.0   -0.0   0.0 H        1 UNL1     0.0234
     108 H         1.085975   3.469773   1.386179 H        1 UNL1     0.2098
     109 H         1.040646   2.951825   -1.17636 H        1 UNL1     0.0234
     110 H         -0.174733   2.091263   -2.173901 H        1 UNL1     0.0234
     111 H         0.044339   3.797905   -2.341896 H        1 UNL1     0.0234
     112 H         -3.574967   -1.430993   1.533859 H        1 UNL1     0.0342
     113 H         -3.250501   0.269759   2.024169 H        1 UNL1     0.0342
     114 H         -4.422279   -0.084936   0.75173 H        1 UNL1     0.0342
     115 H         -2.771664   2.244809   3.013158 H        1 UNL1     0.0234
     116 H         -1.280164   2.392714   3.948217 H        1 UNL1     0.0234
     117 H         -1.792633   3.613431   2.764632 H        1 UNL1     0.0234
     118 H         0.810648   7.560483   -1.64465 H        1 UNL1     0.0309
     119 H         2.110683   7.542776   -2.876582 H        1 UNL1     0.0309
     120 H         1.372342   6.0656   -2.297824 H        1 UNL1     0.0309
     121 H         -0.544399   6.563637   2.046492 H        1 UNL1     0.0524
     122 H         -2.266925   6.242745   1.808192 H        1 UNL1     0.0524
     123 H         -1.475352   5.72753   3.318725 H        1 UNL1     0.0524
@<TRIPOS>BOND
     1     1     2    1
     2     1    42    1
     3     2     3    2
     4     3     4    1
     5     4     5    2
     6     5     7    1
     7     6    75    1
     8     6    76    1
     9     6    77    1
    10     7     9   am
    11     9    10    1
    12    10    11    2
    13    10    43    1
    14    11    14    1
    15    11    15    1
    16    12    13   ar
    17    12    27   ar
    18    12    43    1
    19    13    14    1
    20    13    30   ar
    21    14    17    2
    22    15    16    1
    23    16    17    1
    24    16    18    1
    25    16    22    1
    26    18    19    1
    27    19    20    1
    28    20    21    1
    29    21    22    1
    30    23    24    1
    31    23    88    1
    32    23    89    1
    33    24    25    1
    34    24    26    1
    35    24    90    1
    36    25    91    1
    37    25    92    1
    38    25    93    1
    39    26    94    1
    40    26    95    1
    41    26    96    1
    42    27    28   ar
    43    28    29   ar
    44    29    30   ar
    45    29    31    1
    46    30    33    1
    47    31    32    1
    48    32    33    1
    49    32    35    1
    50    34    97    1
    51    34    98    1
    52    34    99    1
    53    35    61    1
    54    36    37    1
    55    36    60    1
    56    37    38    1
    57    38    39    1
    58    39    40    1
    59    40    41    1
    60    41    42    1
    61    45   100    1
    62    47   101    1
    63    47   102    1
    64    47   103    1
    65    48   104    1
    66    49   105    1
    67    49   106    1
    68    49   107    1
    69    50   108    1
    70    51    59    1
    71    52   109    1
    72    52   110    1
    73    52   111    1
    74    53    54    1
    75    54    55    2
    76    54    56    1
    77    56   112    1
    78    56   113    1
    79    56   114    1
    80    57   115    1
    81    57   116    1
    82    57   117    1
    83    58   118    1
    84    58   119    1
    85    58   120    1
    86    59   121    1
    87    59   122    1
    88    59   123    1
    89    60    61    2
    90     1    47    1
    91     1    62    1
    92     2    63    1
    93     3    64    1
    94     4    65    1
    95     5     6    1
    96     7     8    2
    97     9    78    1
    98    15    79    1
    99    18    80    1
   100    18    81    1
   101    19    82    1
   102    19    83    1
   103    20    23    1
   104    21    84    1
   105    21    85    1
   106    22    86    1
   107    22    87    1
   108    27    45    1
   109    28    34    1
   110    32    58    1
   111    33    46    2
   112    36    51    1
   113    36    66    1
   114    37    52    1
   115    37    67    1
   116    38    53    1
   117    38    68    1
   118    42    48    1
   119    42    72    1
   120    43    44    2
   121    60    73    1
   122    61    74    1
   123    39    69    1
   124    39    57    1
   125    40    70    1
   126    40    50    1
   127    41    71    1
   128    41    49    1
