@<TRIPOS>MOLECULE
*****
 123 128 0 0 0
SMALL
GASTEIGER

@<TRIPOS>ATOM
     1 C         5.166527   1.759996   0.456818 C.3        1 UNL1     0.0009
     2 C         6.595976   2.568621   -0.403322 C.2        1 UNL1     -0.0787
     3 C         7.873727   2.472736   -1.077269 C.2        1 UNL1     -0.0649
     4 C         8.743654   3.709251   -1.83925 C.2        1 UNL1     -0.0542
     5 C         9.756967   4.00348   -2.78461 C.2        1 UNL1     0.0115
     6 C         10.880863   3.379893   -3.657146 C.3        1 UNL1     -0.0348
     7 C         9.845243   5.486565   -3.392601 C.2        1 UNL1     0.2441
     8 O         10.669812   6.31018   -3.020753 O.2        1 UNL1     -0.2702
     9 N         9.087029   5.691236   -4.558522 N.am        1 UNL1     -0.2772
     10 C         7.805555   6.075399   -4.236705 C.2        1 UNL1     0.1049
     11 C         6.963732   5.10238   -3.938728 C.2        1 UNL1     0.0801
     12 C         6.512919   7.680162   -2.818552 C.ar        1 UNL1     0.0753
     13 C         5.759159   6.550919   -2.365491 C.ar        1 UNL1     0.0305
     14 C         5.874675   5.245076   -3.010844 C.2        1 UNL1     0.0924
     15 N         7.088131   3.773567   -4.097817 N.pl3        1 UNL1     -0.3170
     16 C         5.821601   3.171908   -3.775077 C.3        1 UNL1     0.1275
     17 N         5.189533   4.126393   -2.791627 N.2        1 UNL1     -0.2557
     18 C         4.960474   3.228409   -5.033238 C.3        1 UNL1     0.0016
     19 C         5.709484   2.545226   -6.166302 C.3        1 UNL1     0.0026
     20 N         5.98503   1.167933   -5.781379 N.3        1 UNL1     -0.3018
     21 C         6.756725   1.009905   -4.546922 C.3        1 UNL1     0.0026
     22 C         5.983788   1.699461   -3.421322 C.3        1 UNL1     0.0016
     23 C         6.424083   0.34866   -6.893435 C.3        1 UNL1     0.0012
     24 C         5.262839   0.096148   -7.867862 C.3        1 UNL1     -0.0339
     25 C         5.348079   1.0182   -9.095303 C.3        1 UNL1     -0.0615
     26 C         5.229396   -1.368102   -8.269901 C.3        1 UNL1     -0.0615
     27 C         6.309072   8.94775   -2.278378 C.ar        1 UNL1     0.1347
     28 C         5.355676   9.215858   -1.312353 C.ar        1 UNL1     0.0342
     29 C         4.659509   8.08021   -0.846715 C.ar        1 UNL1     0.1435
     30 C         4.878389   6.798341   -1.352801 C.ar        1 UNL1     0.0774
     31 O         3.623824   8.1921   0.013427 O.3        1 UNL1     -0.4436
     32 C         2.90385   6.957672   -0.123323 C.3        1 UNL1     0.3143
     33 C         3.915781   5.966383   -0.661426 C.2        1 UNL1     0.2504
     34 C         4.908811   10.581285   -0.869612 C.3        1 UNL1     -0.0327
     35 O         2.552665   6.521019   1.195485 O.2        1 UNL1     -0.4528
     36 C         -0.688787   4.581747   0.820917 C.3        1 UNL1     0.0854
     37 C         -0.99723   3.319971   -0.073681 C.3        1 UNL1     0.0236
     38 C         -1.590002   2.058146   0.718888 C.3        1 UNL1     0.1131
     39 C         -0.854711   1.529546   2.015884 C.3        1 UNL1     0.0200
     40 C         0.807017   1.387533   2.046379 C.3        1 UNL1     0.0661
     41 C         1.76042   0.62001   0.871841 C.3        1 UNL1     0.0091
     42 C         3.463549   0.985822   0.296569 C.3        1 UNL1     0.0661
     43 C         7.456119   7.473774   -3.945511 C.2        1 UNL1     0.2131
     44 O         7.84944   8.37225   -4.66716 O.2        1 UNL1     -0.2851
     45 O         7.116162   9.984286   -2.742746 O.3        1 UNL1     -0.5056
     46 O         3.935161   4.762966   -0.530027 O.2        1 UNL1     -0.2836
     47 C         5.573104   1.332248   1.892683 C.3        1 UNL1     -0.0566
     48 O         3.915615   -0.424282   0.376303 O.3        1 UNL1     -0.3909
     49 C         0.918712   0.384891   -0.362557 C.3        1 UNL1     -0.0577
     50 O         1.407172   2.606903   2.434547 O.3        1 UNL1     -0.3910
     51 O         -0.803457   4.392676   2.21323 O.3        1 UNL1     -0.3753
     52 C         0.040073   3.160986   -1.232851 C.3        1 UNL1     -0.0564
     53 O         -2.196226   1.017334   -0.176394 O.3        1 UNL1     -0.4608
     54 C         -2.39452   -0.297778   0.153894 C.2        1 UNL1     0.3042
     55 O         -1.81246   -1.279324   -0.306117 O.2        1 UNL1     -0.2512
     56 C         -3.408406   -0.49774   1.244199 C.3        1 UNL1     0.0332
     57 C         -1.568964   2.197804   3.281368 C.3        1 UNL1     -0.0567
     58 C         1.821137   7.199819   -1.200647 C.3        1 UNL1     0.0210
     59 C         -1.114342   5.57148   2.954605 C.3        1 UNL1     0.0372
     60 C         0.637354   5.213488   0.581307 C.2        1 UNL1     -0.0208
     61 C         1.554984   5.651188   1.44451 C.2        1 UNL1     0.0882
     62 H         4.689105   2.743218   0.546567 H        1 UNL1     0.0365
     63 H         6.328192   3.621922   -0.296938 H        1 UNL1     0.0576
     64 H         8.331979   1.506715   -1.300687 H        1 UNL1     0.0615
     65 H         8.256898   4.623836   -1.489842 H        1 UNL1     0.0622
     66 H         -1.437008   5.32651   0.515072 H        1 UNL1     0.0645
     67 H         -1.867374   3.627128   -0.679538 H        1 UNL1     0.0362
     68 H         -2.535693   2.493246   1.076491 H        1 UNL1     0.0741
     69 H         -1.182825   0.517875   2.214052 H        1 UNL1     0.0359
     70 H         0.925898   0.727994   2.927251 H        1 UNL1     0.0600
     71 H         1.808926   -0.400793   1.299119 H        1 UNL1     0.0348
     72 H         3.362991   1.474419   1.276608 H        1 UNL1     0.0602
     73 H         0.748109   5.410333   -0.45611 H        1 UNL1     0.0628
     74 H         1.544821   5.441161   2.514568 H        1 UNL1     0.1022
     75 H         10.909923   2.271363   -3.525424 H        1 UNL1     0.0279
     76 H         10.773457   3.485059   -4.734399 H        1 UNL1     0.0279
     77 H         11.888339   3.664742   -3.320168 H        1 UNL1     0.0279
     78 H         9.023462   4.820828   -5.082379 H        1 UNL1     0.1553
     79 H         7.750285   3.346589   -4.719248 H        1 UNL1     0.1484
     80 H         4.00151   2.735574   -4.832567 H        1 UNL1     0.0317
     81 H         4.729925   4.264512   -5.303405 H        1 UNL1     0.0317
     82 H         6.637395   3.07833   -6.420649 H        1 UNL1     0.0428
     83 H         5.078445   2.598489   -7.053997 H        1 UNL1     0.0428
     84 H         6.881249   -0.032596   -4.237895 H        1 UNL1     0.0428
     85 H         7.785344   1.380041   -4.657649 H        1 UNL1     0.0428
     86 H         6.506618   1.45076   -2.516455 H        1 UNL1     0.0317
     87 H         5.006186   1.219842   -3.289585 H        1 UNL1     0.0317
     88 H         7.215563   0.891799   -7.426214 H        1 UNL1     0.0429
     89 H         6.86094   -0.595977   -6.544737 H        1 UNL1     0.0429
     90 H         4.313856   0.287113   -7.35291 H        1 UNL1     0.0308
     91 H         6.300289   0.895021   -9.619922 H        1 UNL1     0.0233
     92 H         4.528036   0.815736   -9.78823 H        1 UNL1     0.0233
     93 H         5.267308   2.078652   -8.827437 H        1 UNL1     0.0233
     94 H         4.569165   -1.507903   -9.132679 H        1 UNL1     0.0233
     95 H         6.23157   -1.700274   -8.554983 H        1 UNL1     0.0233
     96 H         4.867892   -1.998209   -7.452437 H        1 UNL1     0.0233
     97 H         4.081235   10.531645   -0.168267 H        1 UNL1     0.0280
     98 H         5.707098   11.131009   -0.354058 H        1 UNL1     0.0280
     99 H         4.584345   11.165644   -1.746162 H        1 UNL1     0.0280
     100 H         6.646425   10.74649   -3.032597 H        1 UNL1     0.2922
     101 H         4.711365   0.908525   2.40797 H        1 UNL1     0.0236
     102 H         6.037005   2.135551   2.46407 H        1 UNL1     0.0236
     103 H         6.321865   0.522606   1.887217 H        1 UNL1     0.0236
     104 H         4.335711   -0.550414   1.249561 H        1 UNL1     0.2098
     105 H         0.700451   1.282906   -0.935045 H        1 UNL1     0.0234
     106 H         1.285499   -0.402769   -1.020574 H        1 UNL1     0.0234
     107 H         0.0   -0.0   0.0 H        1 UNL1     0.0234
     108 H         1.256572   3.247112   1.712591 H        1 UNL1     0.2098
     109 H         1.069011   3.062309   -0.859673 H        1 UNL1     0.0234
     110 H         -0.188298   2.32537   -1.903176 H        1 UNL1     0.0234
     111 H         0.04634   4.038174   -1.893494 H        1 UNL1     0.0234
     112 H         -3.50328   -1.563512   1.473273 H        1 UNL1     0.0342
     113 H         -3.166066   0.074089   2.138697 H        1 UNL1     0.0342
     114 H         -4.381652   -0.14432   0.876707 H        1 UNL1     0.0342
     115 H         -2.640388   1.957457   3.319738 H        1 UNL1     0.0234
     116 H         -1.133352   1.91006   4.240271 H        1 UNL1     0.0234
     117 H         -1.59927   3.300145   3.238157 H        1 UNL1     0.0234
     118 H         0.91988   7.680852   -0.781899 H        1 UNL1     0.0309
     119 H         2.182482   7.79193   -2.047426 H        1 UNL1     0.0309
     120 H         1.435084   6.266891   -1.625753 H        1 UNL1     0.0309
     121 H         -0.27847   6.261486   2.84251 H        1 UNL1     0.0524
     122 H         -2.016797   6.078762   2.574766 H        1 UNL1     0.0524
     123 H         -1.26155   5.328198   4.003051 H        1 UNL1     0.0524
@<TRIPOS>BOND
     1     1     2    1
     2     1    42    1
     3     2     3    2
     4     3     4    1
     5     4     5    2
     6     5     7    1
     7     6    75    1
     8     6    76    1
     9     6    77    1
    10     7     9   am
    11     9    10    1
    12    10    11    2
    13    10    43    1
    14    11    14    1
    15    11    15    1
    16    12    13   ar
    17    12    27   ar
    18    12    43    1
    19    13    14    1
    20    13    30   ar
    21    14    17    2
    22    15    16    1
    23    16    17    1
    24    16    18    1
    25    16    22    1
    26    18    19    1
    27    19    20    1
    28    20    21    1
    29    21    22    1
    30    23    24    1
    31    23    88    1
    32    23    89    1
    33    24    25    1
    34    24    26    1
    35    24    90    1
    36    25    91    1
    37    25    92    1
    38    25    93    1
    39    26    94    1
    40    26    95    1
    41    26    96    1
    42    27    28   ar
    43    28    29   ar
    44    29    30   ar
    45    29    31    1
    46    30    33    1
    47    31    32    1
    48    32    33    1
    49    32    35    1
    50    34    97    1
    51    34    98    1
    52    34    99    1
    53    35    61    1
    54    36    37    1
    55    36    60    1
    56    37    38    1
    57    38    39    1
    58    39    40    1
    59    40    41    1
    60    41    42    1
    61    45   100    1
    62    47   101    1
    63    47   102    1
    64    47   103    1
    65    48   104    1
    66    49   105    1
    67    49   106    1
    68    49   107    1
    69    50   108    1
    70    51    59    1
    71    52   109    1
    72    52   110    1
    73    52   111    1
    74    53    54    1
    75    54    55    2
    76    54    56    1
    77    56   112    1
    78    56   113    1
    79    56   114    1
    80    57   115    1
    81    57   116    1
    82    57   117    1
    83    58   118    1
    84    58   119    1
    85    58   120    1
    86    59   121    1
    87    59   122    1
    88    59   123    1
    89    60    61    2
    90     1    47    1
    91     1    62    1
    92     2    63    1
    93     3    64    1
    94     4    65    1
    95     5     6    1
    96     7     8    2
    97     9    78    1
    98    15    79    1
    99    18    80    1
   100    18    81    1
   101    19    82    1
   102    19    83    1
   103    20    23    1
   104    21    84    1
   105    21    85    1
   106    22    86    1
   107    22    87    1
   108    27    45    1
   109    28    34    1
   110    32    58    1
   111    33    46    2
   112    36    51    1
   113    36    66    1
   114    37    52    1
   115    37    67    1
   116    38    53    1
   117    38    68    1
   118    42    48    1
   119    42    72    1
   120    43    44    2
   121    60    73    1
   122    61    74    1
   123    39    69    1
   124    39    57    1
   125    40    70    1
   126    40    50    1
   127    41    71    1
   128    41    49    1
