@<TRIPOS>MOLECULE
*****
 123 128 0 0 0
SMALL
GASTEIGER

@<TRIPOS>ATOM
     1 C         5.036751   2.056174   0.644239 C.3        1 UNL1     0.0009
     2 C         6.422599   2.997611   -0.149585 C.2        1 UNL1     -0.0787
     3 C         7.718045   3.019369   -0.795646 C.2        1 UNL1     -0.0649
     4 C         8.513165   4.343754   -1.488571 C.2        1 UNL1     -0.0542
     5 C         9.522744   4.746426   -2.397243 C.2        1 UNL1     0.0115
     6 C         10.706843   4.239247   -3.265576 C.3        1 UNL1     -0.0348
     7 C         9.517435   6.255086   -2.945792 C.2        1 UNL1     0.2441
     8 O         10.272699   7.119544   -2.522927 O.2        1 UNL1     -0.2702
     9 N         8.771585   6.451855   -4.121012 N.am        1 UNL1     -0.2772
     10 C         7.459283   6.731189   -3.815793 C.2        1 UNL1     0.1049
     11 C         6.683212   5.689909   -3.575646 C.2        1 UNL1     0.0801
     12 C         6.024914   8.182614   -2.368973 C.ar        1 UNL1     0.0753
     13 C         5.344546   6.985681   -1.977745 C.ar        1 UNL1     0.0305
     14 C         5.56715   5.71805   -2.669561 C.2        1 UNL1     0.0924
     15 N         6.905931   4.380637   -3.782358 N.pl3        1 UNL1     -0.3170
     16 C         5.679189   3.678431   -3.513537 C.3        1 UNL1     0.1275
     17 N         4.959447   4.545819   -2.509876 N.2        1 UNL1     -0.2557
     18 C         4.843308   3.723908   -4.789051 C.3        1 UNL1     0.0016
     19 C         5.663411   3.141167   -5.928978 C.3        1 UNL1     0.0026
     20 N         6.028705   1.772598   -5.590437 N.3        1 UNL1     -0.3018
     21 C         6.783189   1.620542   -4.344644 C.3        1 UNL1     0.0026
     22 C         5.938929   2.208239   -3.212508 C.3        1 UNL1     0.0016
     23 C         6.549026   1.031434   -6.722067 C.3        1 UNL1     0.0012
     24 C         5.429962   0.736364   -7.733198 C.3        1 UNL1     -0.0339
     25 C         5.773047   1.285322   -9.127828 C.3        1 UNL1     -0.0615
     26 C         5.144889   -0.754893   -7.774037 C.3        1 UNL1     -0.0615
     27 C         5.719218   9.410053   -1.785825 C.ar        1 UNL1     0.1347
     28 C         4.72863   9.571276   -0.833569 C.ar        1 UNL1     0.0342
     29 C         4.105883   8.371537   -0.428629 C.ar        1 UNL1     0.1435
     30 C         4.426866   7.129569   -0.977908 C.ar        1 UNL1     0.0774
     31 O         3.046699   8.375451   0.409893 O.3        1 UNL1     -0.4436
     32 C         2.420167   7.099577   0.20871 C.3        1 UNL1     0.3143
     33 C         3.51183   6.204656   -0.342291 C.2        1 UNL1     0.2504
     34 C         4.175662   10.882907   -0.349883 C.3        1 UNL1     -0.0327
     35 O         2.073091   6.58695   1.500996 O.2        1 UNL1     -0.4528
     36 C         -1.012239   4.439506   0.974393 C.3        1 UNL1     0.0854
     37 C         -1.210239   3.195709   0.025031 C.3        1 UNL1     0.0236
     38 C         -1.727821   1.864504   0.75424 C.3        1 UNL1     0.1131
     39 C         -0.984407   1.338031   2.047465 C.3        1 UNL1     0.0200
     40 C         0.682195   1.31293   2.112639 C.3        1 UNL1     0.0661
     41 C         1.713051   0.662252   0.932993 C.3        1 UNL1     0.0091
     42 C         3.397473   1.170367   0.41343 C.3        1 UNL1     0.0661
     43 C         7.004349   8.088597   -3.479887 C.2        1 UNL1     0.2131
     44 O         7.347572   9.040707   -4.156955 O.2        1 UNL1     -0.2851
     45 O         6.459655   10.518811   -2.190604 O.3        1 UNL1     -0.5056
     46 O         3.614626   5.001353   -0.256556 O.2        1 UNL1     -0.2836
     47 C         5.442174   1.601412   2.072107 C.3        1 UNL1     -0.0566
     48 O         3.947665   -0.206245   0.450103 O.3        1 UNL1     -0.3909
     49 C         0.916934   0.417501   -0.32946 C.3        1 UNL1     -0.0577
     50 O         1.184952   2.555295   2.561514 O.3        1 UNL1     -0.3910
     51 O         -1.142784   4.187461   2.355285 O.3        1 UNL1     -0.3753
     52 C         -0.139676   3.156887   -1.113976 C.3        1 UNL1     -0.0564
     53 O         -2.238594   0.819884   -0.194552 O.3        1 UNL1     -0.4608
     54 C         -2.349104   -0.518081   0.080342 C.2        1 UNL1     0.3042
     55 O         -1.600043   -1.421059   -0.2903 O.2        1 UNL1     -0.2512
     56 C         -3.500766   -0.853081   0.984866 C.3        1 UNL1     0.0332
     57 C         -1.771608   1.903081   3.319946 C.3        1 UNL1     -0.0567
     58 C         1.346147   7.30719   -0.884408 C.3        1 UNL1     0.0210
     59 C         -1.553153   5.310814   3.13345 C.3        1 UNL1     0.0372
     60 C         0.270014   5.172603   0.791206 C.2        1 UNL1     -0.0208
     61 C         1.135246   5.639432   1.692421 C.2        1 UNL1     0.0882
     62 H         4.488257   2.998765   0.759947 H        1 UNL1     0.0365
     63 H         6.077777   4.024231   -0.009519 H        1 UNL1     0.0576
     64 H         8.249046   2.097891   -1.044691 H        1 UNL1     0.0615
     65 H         7.954736   5.206927   -1.11632 H        1 UNL1     0.0622
     66 H         -1.805223   5.141016   0.679254 H        1 UNL1     0.0645
     67 H         -2.087021   3.464383   -0.589484 H        1 UNL1     0.0362
     68 H         -2.709696   2.216957   1.105266 H        1 UNL1     0.0741
     69 H         -1.243304   0.298576   2.198837 H        1 UNL1     0.0359
     70 H         0.829206   0.628888   2.970271 H        1 UNL1     0.0600
     71 H         1.825477   -0.368768   1.321988 H        1 UNL1     0.0348
     72 H         3.241226   1.611176   1.408713 H        1 UNL1     0.0602
     73 H         0.388513   5.417978   -0.23495 H        1 UNL1     0.0628
     74 H         1.117305   5.38674   2.753111 H        1 UNL1     0.1022
     75 H         10.780885   3.126111   -3.215777 H        1 UNL1     0.0279
     76 H         10.636831   4.421732   -4.33556 H        1 UNL1     0.0279
     77 H         11.686504   4.539778   -2.866019 H        1 UNL1     0.0279
     78 H         8.781793   5.600698   -4.679138 H        1 UNL1     0.1553
     79 H         7.61012   4.026716   -4.40348 H        1 UNL1     0.1484
     80 H         3.918077   3.156807   -4.630586 H        1 UNL1     0.0317
     81 H         4.544895   4.751027   -5.024908 H        1 UNL1     0.0317
     82 H         6.555937   3.748344   -6.140275 H        1 UNL1     0.0428
     83 H         5.04929   3.184946   -6.828972 H        1 UNL1     0.0428
     84 H         6.975502   0.577991   -4.072773 H        1 UNL1     0.0428
     85 H         7.784755   2.066697   -4.416265 H        1 UNL1     0.0428
     86 H         6.45879   1.961322   -2.305444 H        1 UNL1     0.0317
     87 H         4.995637   1.655737   -3.122851 H        1 UNL1     0.0317
     88 H         7.310733   1.650047   -7.214423 H        1 UNL1     0.0429
     89 H         7.044934   0.106956   -6.39928 H        1 UNL1     0.0429
     90 H         4.502133   1.209394   -7.390287 H        1 UNL1     0.0308
     91 H         6.799654   1.035558   -9.412078 H        1 UNL1     0.0233
     92 H         5.086237   0.888228   -9.878971 H        1 UNL1     0.0233
     93 H         5.685217   2.377291   -9.180032 H        1 UNL1     0.0233
     94 H         4.661126   -1.021187   -8.720027 H        1 UNL1     0.0233
     95 H         6.08082   -1.316257   -7.704285 H        1 UNL1     0.0233
     96 H         4.489186   -1.058445   -6.953136 H        1 UNL1     0.0233
     97 H         3.323579   10.747516   0.309552 H        1 UNL1     0.0280
     98 H         4.913735   11.455826   0.226545 H        1 UNL1     0.0280
     99 H         3.852134   11.487718   -1.212801 H        1 UNL1     0.0280
     100 H         5.943563   11.270726   -2.422758 H        1 UNL1     0.2922
     101 H         4.575018   1.187399   2.586198 H        1 UNL1     0.0236
     102 H         5.9243   2.387901   2.651738 H        1 UNL1     0.0236
     103 H         6.175171   0.777701   2.051892 H        1 UNL1     0.0236
     104 H         4.275823   -0.368688   1.356135 H        1 UNL1     0.2098
     105 H         0.688444   1.315761   -0.897556 H        1 UNL1     0.0234
     106 H         1.327784   -0.349965   -0.9853 H        1 UNL1     0.0234
     107 H         0.0   -0.0   0.0 H        1 UNL1     0.0234
     108 H         1.004301   3.211492   1.86113 H        1 UNL1     0.2098
     109 H         0.885479   3.116519   -0.720099 H        1 UNL1     0.0234
     110 H         -0.293175   2.334574   -1.821071 H        1 UNL1     0.0234
     111 H         -0.1822   4.057942   -1.740263 H        1 UNL1     0.0234
     112 H         -3.51945   -1.929524   1.180485 H        1 UNL1     0.0342
     113 H         -3.469069   -0.28746   1.914873 H        1 UNL1     0.0342
     114 H         -4.432575   -0.58883   0.466149 H        1 UNL1     0.0342
     115 H         -2.845367   1.67562   3.270022 H        1 UNL1     0.0234
     116 H         -1.40021   1.526316   4.275017 H        1 UNL1     0.0234
     117 H         -1.789487   3.005293   3.372389 H        1 UNL1     0.0234
     118 H         0.324549   7.314885   -0.465738 H        1 UNL1     0.0309
     119 H         1.500008   8.218983   -1.47021 H        1 UNL1     0.0309
     120 H         1.316896   6.484048   -1.606688 H        1 UNL1     0.0309
     121 H         -1.186623   5.160315   4.148518 H        1 UNL1     0.0524
     122 H         -1.123747   6.256238   2.762208 H        1 UNL1     0.0524
     123 H         -2.636443   5.391906   3.134261 H        1 UNL1     0.0524
@<TRIPOS>BOND
     1     1     2    1
     2     1    42    1
     3     2     3    2
     4     3     4    1
     5     4     5    2
     6     5     7    1
     7     6    75    1
     8     6    76    1
     9     6    77    1
    10     7     9   am
    11     9    10    1
    12    10    11    2
    13    10    43    1
    14    11    14    1
    15    11    15    1
    16    12    13   ar
    17    12    27   ar
    18    12    43    1
    19    13    14    1
    20    13    30   ar
    21    14    17    2
    22    15    16    1
    23    16    17    1
    24    16    18    1
    25    16    22    1
    26    18    19    1
    27    19    20    1
    28    20    21    1
    29    21    22    1
    30    23    24    1
    31    23    88    1
    32    23    89    1
    33    24    25    1
    34    24    26    1
    35    24    90    1
    36    25    91    1
    37    25    92    1
    38    25    93    1
    39    26    94    1
    40    26    95    1
    41    26    96    1
    42    27    28   ar
    43    28    29   ar
    44    29    30   ar
    45    29    31    1
    46    30    33    1
    47    31    32    1
    48    32    33    1
    49    32    35    1
    50    34    97    1
    51    34    98    1
    52    34    99    1
    53    35    61    1
    54    36    37    1
    55    36    60    1
    56    37    38    1
    57    38    39    1
    58    39    40    1
    59    40    41    1
    60    41    42    1
    61    45   100    1
    62    47   101    1
    63    47   102    1
    64    47   103    1
    65    48   104    1
    66    49   105    1
    67    49   106    1
    68    49   107    1
    69    50   108    1
    70    51    59    1
    71    52   109    1
    72    52   110    1
    73    52   111    1
    74    53    54    1
    75    54    55    2
    76    54    56    1
    77    56   112    1
    78    56   113    1
    79    56   114    1
    80    57   115    1
    81    57   116    1
    82    57   117    1
    83    58   118    1
    84    58   119    1
    85    58   120    1
    86    59   121    1
    87    59   122    1
    88    59   123    1
    89    60    61    2
    90     1    47    1
    91     1    62    1
    92     2    63    1
    93     3    64    1
    94     4    65    1
    95     5     6    1
    96     7     8    2
    97     9    78    1
    98    15    79    1
    99    18    80    1
   100    18    81    1
   101    19    82    1
   102    19    83    1
   103    20    23    1
   104    21    84    1
   105    21    85    1
   106    22    86    1
   107    22    87    1
   108    27    45    1
   109    28    34    1
   110    32    58    1
   111    33    46    2
   112    36    51    1
   113    36    66    1
   114    37    52    1
   115    37    67    1
   116    38    53    1
   117    38    68    1
   118    42    48    1
   119    42    72    1
   120    43    44    2
   121    60    73    1
   122    61    74    1
   123    39    69    1
   124    39    57    1
   125    40    70    1
   126    40    50    1
   127    41    71    1
   128    41    49    1
