@<TRIPOS>MOLECULE
*****
 123 128 0 0 0
SMALL
GASTEIGER

@<TRIPOS>ATOM
     1 C         -0.400869   2.611029   -4.784446 C.3        1 UNL1     0.0009
     2 C         -0.381774   4.267869   -5.616043 C.2        1 UNL1     -0.0787
     3 C         -1.082247   5.353562   -6.269232 C.2        1 UNL1     -0.0649
     4 C         -0.454507   6.842942   -6.773265 C.2        1 UNL1     -0.0542
     5 C         -0.77327   8.176726   -7.128917 C.2        1 UNL1     0.0115
     6 C         -1.943662   9.144757   -7.455137 C.3        1 UNL1     -0.0348
     7 C         0.391256   9.281642   -7.123501 C.2        1 UNL1     0.2441
     8 O         0.932245   9.683243   -8.144566 O.2        1 UNL1     -0.2702
     9 N         0.56699   9.946121   -5.897232 N.am        1 UNL1     -0.2772
     10 C         1.445415   9.252564   -5.096813 C.2        1 UNL1     0.1049
     11 C         0.935252   8.249595   -4.405431 C.2        1 UNL1     0.0801
     12 C         3.69287   8.154286   -5.105038 C.ar        1 UNL1     0.0753
     13 C         3.047237   7.006739   -4.543876 C.ar        1 UNL1     0.0305
     14 C         1.671723   7.065621   -4.054443 C.2        1 UNL1     0.0924
     15 N         -0.348182   7.915067   -4.187677 N.pl3        1 UNL1     -0.3170
     16 C         -0.366115   6.842903   -3.228304 C.3        1 UNL1     0.1275
     17 N         0.955527   6.140426   -3.421984 N.2        1 UNL1     -0.2557
     18 C         -0.309858   7.476168   -1.841397 C.3        1 UNL1     0.0016
     19 C         -1.463367   8.457563   -1.707722 C.3        1 UNL1     0.0026
     20 N         -2.714448   7.738626   -1.905092 N.3        1 UNL1     -0.3018
     21 C         -2.836443   7.043761   -3.18831 C.3        1 UNL1     0.0026
     22 C         -1.670469   6.059868   -3.299462 C.3        1 UNL1     0.0016
     23 C         -3.876091   8.508306   -1.506567 C.3        1 UNL1     0.0012
     24 C         -4.361389   9.391055   -2.667169 C.3        1 UNL1     -0.0339
     25 C         -5.171178   8.578707   -3.691077 C.3        1 UNL1     -0.0615
     26 C         -5.159053   10.566313   -2.129319 C.3        1 UNL1     -0.0615
     27 C         5.040024   8.124095   -5.457719 C.ar        1 UNL1     0.1347
     28 C         5.85088   7.020661   -5.260245 C.ar        1 UNL1     0.0342
     29 C         5.182038   5.886918   -4.751875 C.ar        1 UNL1     0.1435
     30 C         3.824774   5.89118   -4.427784 C.ar        1 UNL1     0.0774
     31 O         5.855575   4.769467   -4.401648 O.3        1 UNL1     -0.4436
     32 C         4.962169   4.067573   -3.524127 C.3        1 UNL1     0.3143
     33 C         3.578811   4.57368   -3.87964 C.2        1 UNL1     0.2504
     34 C         7.349409   6.9953   -5.378009 C.3        1 UNL1     -0.0327
     35 O         5.006498   2.682798   -3.889756 O.2        1 UNL1     -0.4528
     36 C         4.313081   0.742129   -0.702113 C.3        1 UNL1     0.0854
     37 C         3.068261   0.82336   0.262951 C.3        1 UNL1     0.0236
     38 C         2.326673   -0.57352   0.528502 C.3        1 UNL1     0.1131
     39 C         1.89747   -1.479622   -0.695031 C.3        1 UNL1     0.0200
     40 C         1.187199   -0.799067   -2.042175 C.3        1 UNL1     0.0661
     41 C         -0.124922   0.276074   -2.037591 C.3        1 UNL1     0.0091
     42 C         -0.53525   1.657736   -3.172511 C.3        1 UNL1     0.0661
     43 C         2.903039   9.405722   -5.216102 C.2        1 UNL1     0.2131
     44 O         3.403755   10.512886   -5.294897 O.2        1 UNL1     -0.2851
     45 O         5.580235   9.2689   -6.039984 O.3        1 UNL1     -0.5056
     46 O         2.515276   4.007942   -3.758443 O.2        1 UNL1     -0.2836
     47 C         -0.589224   1.482925   -5.834154 C.3        1 UNL1     -0.0566
     48 O         -1.95138   1.2506   -3.339634 O.3        1 UNL1     -0.3909
     49 C         -0.333534   0.785437   -0.628859 C.3        1 UNL1     -0.0577
     50 O         2.169447   -0.358749   -2.958162 O.3        1 UNL1     -0.3910
     51 O         4.514928   -0.496538   -1.344291 O.3        1 UNL1     -0.3753
     52 C         2.280241   2.162088   0.084679 C.3        1 UNL1     -0.0564
     53 O         1.38704   -0.541766   1.698292 O.3        1 UNL1     -0.4608
     54 C         0.395941   -1.454871   1.94707 C.2        1 UNL1     0.3042
     55 O         0.291303   -2.196156   2.923485 O.2        1 UNL1     -0.2512
     56 C         -0.684836   -1.468589   0.903783 C.3        1 UNL1     0.0332
     57 C         3.05675   -2.556738   -0.92755 C.3        1 UNL1     -0.0567
     58 C         5.307968   4.527412   -2.088682 C.3        1 UNL1     0.0210
     59 C         5.858506   -0.747471   -1.7538 C.3        1 UNL1     0.0372
     60 C         4.356907   1.786889   -1.761225 C.2        1 UNL1     -0.0208
     61 C         4.633208   1.687894   -3.062225 C.2        1 UNL1     0.0882
     62 H         0.678736   2.704565   -4.61588 H        1 UNL1     0.0365
     63 H         0.690833   4.471385   -5.639808 H        1 UNL1     0.0576
     64 H         -2.171391   5.364764   -6.351372 H        1 UNL1     0.0615
     65 H         0.628294   6.697962   -6.728477 H        1 UNL1     0.0622
     66 H         5.178737   0.934771   -0.052825 H        1 UNL1     0.0645
     67 H         3.509939   1.029144   1.253473 H        1 UNL1     0.0362
     68 H         3.140638   -1.122151   1.026486 H        1 UNL1     0.0741
     69 H         1.14642   -2.182878   -0.36072 H        1 UNL1     0.0359
     70 H         0.75889   -1.70584   -2.510549 H        1 UNL1     0.0600
     71 H         -0.963101   -0.441471   -2.135276 H        1 UNL1     0.0348
     72 H         0.175927   1.019373   -3.716603 H        1 UNL1     0.0602
     73 H         4.248135   2.743247   -1.313122 H        1 UNL1     0.0628
     74 H         4.702184   0.746339   -3.608078 H        1 UNL1     0.1022
     75 H         -1.570173   10.037783   -8.011954 H        1 UNL1     0.0279
     76 H         -2.718549   8.763571   -8.116435 H        1 UNL1     0.0279
     77 H         -2.371416   9.612886   -6.55648 H        1 UNL1     0.0279
     78 H         -0.322372   9.995913   -5.404655 H        1 UNL1     0.1553
     79 H         -1.117213   8.547922   -4.310227 H        1 UNL1     0.1484
     80 H         -0.367568   6.684732   -1.084386 H        1 UNL1     0.0317
     81 H         0.644174   7.990862   -1.684661 H        1 UNL1     0.0317
     82 H         -1.371044   9.293392   -2.416792 H        1 UNL1     0.0428
     83 H         -1.403239   8.898853   -0.712384 H        1 UNL1     0.0428
     84 H         -3.749399   6.44701   -3.278926 H        1 UNL1     0.0428
     85 H         -2.892905   7.747324   -4.030407 H        1 UNL1     0.0428
     86 H         -1.864831   5.479079   -4.182013 H        1 UNL1     0.0317
     87 H         -1.726067   5.320136   -2.491501 H        1 UNL1     0.0317
     88 H         -4.677436   7.805621   -1.243176 H        1 UNL1     0.0429
     89 H         -3.668452   9.109341   -0.611907 H        1 UNL1     0.0429
     90 H         -3.492558   9.826142   -3.175151 H        1 UNL1     0.0308
     91 H         -4.743527   7.582083   -3.835844 H        1 UNL1     0.0233
     92 H         -6.210861   8.479712   -3.370348 H        1 UNL1     0.0233
     93 H         -5.199623   9.058911   -4.676689 H        1 UNL1     0.0233
     94 H         -5.124475   10.576874   -1.034546 H        1 UNL1     0.0233
     95 H         -4.729519   11.505417   -2.489243 H        1 UNL1     0.0233
     96 H         -6.205862   10.514395   -2.441512 H        1 UNL1     0.0233
     97 H         7.675958   6.939169   -6.412149 H        1 UNL1     0.0280
     98 H         7.812331   7.901246   -4.965429 H        1 UNL1     0.0280
     99 H         7.746918   6.11793   -4.842003 H        1 UNL1     0.0280
     100 H         5.91637   9.898688   -5.426793 H        1 UNL1     0.2922
     101 H         0.046006   1.675227   -6.698538 H        1 UNL1     0.0236
     102 H         -1.630134   1.330413   -6.117401 H        1 UNL1     0.0236
     103 H         -0.255078   0.503231   -5.453709 H        1 UNL1     0.0236
     104 H         -2.451125   1.601303   -2.576592 H        1 UNL1     0.2098
     105 H         0.240989   1.675056   -0.383274 H        1 UNL1     0.0234
     106 H         -1.376729   0.918467   -0.342547 H        1 UNL1     0.0234
     107 H         0.0   0.0   0.0 H        1 UNL1     0.0234
     108 H         2.567481   0.452971   -2.588773 H        1 UNL1     0.2098
     109 H         1.31795   2.013651   -0.424905 H        1 UNL1     0.0234
     110 H         2.117064   2.694352   1.027977 H        1 UNL1     0.0234
     111 H         2.836191   2.879774   -0.533214 H        1 UNL1     0.0234
     112 H         -0.946179   -2.500946   0.65222 H        1 UNL1     0.0342
     113 H         -1.564264   -0.908341   1.217745 H        1 UNL1     0.0342
     114 H         -0.291756   -0.989993   -0.003741 H        1 UNL1     0.0342
     115 H         3.573909   -2.808649   0.008546 H        1 UNL1     0.0234
     116 H         2.711295   -3.491463   -1.373644 H        1 UNL1     0.0234
     117 H         3.894036   -2.177028   -1.538052 H        1 UNL1     0.0234
     118 H         6.031339   3.851599   -1.599788 H        1 UNL1     0.0309
     119 H         5.690107   5.552286   -2.0462 H        1 UNL1     0.0309
     120 H         4.442241   4.498543   -1.418019 H        1 UNL1     0.0309
     121 H         6.316802   -1.391825   -1.004047 H        1 UNL1     0.0524
     122 H         5.909535   -1.275   -2.720829 H        1 UNL1     0.0524
     123 H         6.408169   0.186251   -1.832092 H        1 UNL1     0.0524
@<TRIPOS>BOND
     1     1     2    1
     2     1    42    1
     3     2     3    2
     4     3     4    1
     5     4     5    2
     6     5     7    1
     7     6    75    1
     8     6    76    1
     9     6    77    1
    10     7     9   am
    11     9    10    1
    12    10    11    2
    13    10    43    1
    14    11    14    1
    15    11    15    1
    16    12    13   ar
    17    12    27   ar
    18    12    43    1
    19    13    14    1
    20    13    30   ar
    21    14    17    2
    22    15    16    1
    23    16    17    1
    24    16    18    1
    25    16    22    1
    26    18    19    1
    27    19    20    1
    28    20    21    1
    29    21    22    1
    30    23    24    1
    31    23    88    1
    32    23    89    1
    33    24    25    1
    34    24    26    1
    35    24    90    1
    36    25    91    1
    37    25    92    1
    38    25    93    1
    39    26    94    1
    40    26    95    1
    41    26    96    1
    42    27    28   ar
    43    28    29   ar
    44    29    30   ar
    45    29    31    1
    46    30    33    1
    47    31    32    1
    48    32    33    1
    49    32    35    1
    50    34    97    1
    51    34    98    1
    52    34    99    1
    53    35    61    1
    54    36    37    1
    55    36    60    1
    56    37    38    1
    57    38    39    1
    58    39    40    1
    59    40    41    1
    60    41    42    1
    61    45   100    1
    62    47   101    1
    63    47   102    1
    64    47   103    1
    65    48   104    1
    66    49   105    1
    67    49   106    1
    68    49   107    1
    69    50   108    1
    70    51    59    1
    71    52   109    1
    72    52   110    1
    73    52   111    1
    74    53    54    1
    75    54    55    2
    76    54    56    1
    77    56   112    1
    78    56   113    1
    79    56   114    1
    80    57   115    1
    81    57   116    1
    82    57   117    1
    83    58   118    1
    84    58   119    1
    85    58   120    1
    86    59   121    1
    87    59   122    1
    88    59   123    1
    89    60    61    2
    90     1    47    1
    91     1    62    1
    92     2    63    1
    93     3    64    1
    94     4    65    1
    95     5     6    1
    96     7     8    2
    97     9    78    1
    98    15    79    1
    99    18    80    1
   100    18    81    1
   101    19    82    1
   102    19    83    1
   103    20    23    1
   104    21    84    1
   105    21    85    1
   106    22    86    1
   107    22    87    1
   108    27    45    1
   109    28    34    1
   110    32    58    1
   111    33    46    2
   112    36    51    1
   113    36    66    1
   114    37    52    1
   115    37    67    1
   116    38    53    1
   117    38    68    1
   118    42    48    1
   119    42    72    1
   120    43    44    2
   121    60    73    1
   122    61    74    1
   123    39    69    1
   124    39    57    1
   125    40    70    1
   126    40    50    1
   127    41    71    1
   128    41    49    1
