@<TRIPOS>MOLECULE
*****
 123 128 0 0 0
SMALL
GASTEIGER

@<TRIPOS>ATOM
     1 C         2.241276   -0.438672   -4.829999 C.3        1 UNL1     0.0009
     2 C         3.289968   -1.491059   -5.938945 C.2        1 UNL1     -0.0787
     3 C         4.591628   -1.876456   -6.442132 C.2        1 UNL1     -0.0649
     4 C         4.964626   -3.144717   -7.499838 C.2        1 UNL1     -0.0542
     5 C         5.991687   -3.998546   -7.972277 C.2        1 UNL1     0.0115
     6 C         7.524923   -4.248063   -7.956342 C.3        1 UNL1     -0.0348
     7 C         5.587336   -5.34943   -8.739482 C.2        1 UNL1     0.2441
     8 O         5.63908   -5.464609   -9.956273 O.2        1 UNL1     -0.2702
     9 N         5.420624   -6.471189   -7.908811 N.am        1 UNL1     -0.2772
     10 C         4.126074   -6.538912   -7.447425 C.2        1 UNL1     0.1049
     11 C         3.844924   -5.797034   -6.391587 C.2        1 UNL1     0.0801
     12 C         1.743381   -6.436182   -8.202113 C.ar        1 UNL1     0.0753
     13 C         1.538655   -5.470695   -7.165517 C.ar        1 UNL1     0.0305
     14 C         2.552053   -5.218864   -6.143432 C.2        1 UNL1     0.0924
     15 N         4.665565   -5.138516   -5.555269 N.pl3        1 UNL1     -0.3170
     16 C         3.870031   -4.627883   -4.470541 C.3        1 UNL1     0.1275
     17 N         2.495141   -4.442816   -5.064805 N.2        1 UNL1     -0.2557
     18 C         3.739201   -5.745733   -3.440494 C.3        1 UNL1     0.0016
     19 C         5.132655   -6.200819   -3.037044 C.3        1 UNL1     0.0026
     20 N         5.855244   -5.062655   -2.486157 N.3        1 UNL1     -0.3018
     21 C         5.979295   -3.911759   -3.38305 C.3        1 UNL1     0.0026
     22 C         4.567907   -3.468346   -3.771977 C.3        1 UNL1     0.0016
     23 C         7.073619   -5.446098   -1.801192 C.3        1 UNL1     0.0012
     24 C         7.504541   -6.860595   -2.219834 C.3        1 UNL1     -0.0339
     25 C         8.809631   -7.280072   -1.523533 C.3        1 UNL1     -0.0615
     26 C         6.383384   -7.848442   -1.947904 C.3        1 UNL1     -0.0615
     27 C         0.728026   -6.757644   -9.099795 C.ar        1 UNL1     0.1347
     28 C         -0.541347   -6.21112   -9.036121 C.ar        1 UNL1     0.0342
     29 C         -0.704994   -5.22711   -8.038068 C.ar        1 UNL1     0.1435
     30 C         0.313973   -4.868572   -7.154679 C.ar        1 UNL1     0.0774
     31 O         -1.913058   -4.681328   -7.777855 O.3        1 UNL1     -0.4436
     32 C         -1.78455   -4.127761   -6.459552 C.3        1 UNL1     0.3143
     33 C         -0.298522   -3.901295   -6.268119 C.2        1 UNL1     0.2504
     34 C         -1.745874   -6.687956   -9.798906 C.3        1 UNL1     -0.0327
     35 O         -2.40449   -2.836019   -6.477669 O.2        1 UNL1     -0.4528
     36 C         -3.722215   -2.264772   -2.964072 C.3        1 UNL1     0.0854
     37 C         -2.941769   -2.273955   -1.593546 C.3        1 UNL1     0.0236
     38 C         -3.106831   -0.943949   -0.712875 C.3        1 UNL1     0.1131
     39 C         -2.853799   0.471184   -1.372908 C.3        1 UNL1     0.0200
     40 C         -1.545617   0.712264   -2.379376 C.3        1 UNL1     0.0661
     41 C         0.061465   0.289423   -2.03864 C.3        1 UNL1     0.0091
     42 C         1.411976   -0.252114   -3.155896 C.3        1 UNL1     0.0661
     43 C         3.044287   -7.149529   -8.234341 C.2        1 UNL1     0.2131
     44 O         3.208365   -8.22585   -8.77964 O.2        1 UNL1     -0.2851
     45 O         1.023713   -7.673771   -10.107128 O.3        1 UNL1     -0.5056
     46 O         0.255018   -3.090026   -5.5601 O.2        1 UNL1     -0.2836
     47 C         2.13668   1.003204   -5.395717 C.3        1 UNL1     -0.0566
     48 O         2.416025   0.673039   -2.577023 O.3        1 UNL1     -0.3909
     49 C         0.079359   -0.637175   -0.843404 C.3        1 UNL1     -0.0577
     50 O         -1.865879   0.360842   -3.710413 O.3        1 UNL1     -0.3910
     51 O         -4.318555   -1.039463   -3.325219 O.3        1 UNL1     -0.3753
     52 C         -1.579524   -3.033466   -1.704809 C.3        1 UNL1     -0.0564
     53 O         -2.6597   -1.106792   0.71046 O.3        1 UNL1     -0.4608
     54 C         -3.075241   -0.33956   1.767157 C.2        1 UNL1     0.3042
     55 O         -4.032942   -0.548469   2.510801 O.2        1 UNL1     -0.2512
     56 C         -2.191922   0.845948   2.033678 C.3        1 UNL1     0.0332
     57 C         -4.271104   1.044686   -1.8425 C.3        1 UNL1     -0.0567
     58 C         -2.252539   -5.225967   -5.476464 C.3        1 UNL1     0.0210
     59 C         -3.402507   0.034235   -3.534729 C.3        1 UNL1     0.0372
     60 C         -2.932739   -2.721098   -4.140361 C.2        1 UNL1     -0.0208
     61 C         -2.832858   -2.206507   -5.366723 C.2        1 UNL1     0.0882
     62 H         1.356046   -0.979444   -5.185869 H        1 UNL1     0.0365
     63 H         2.520655   -2.042547   -6.483453 H        1 UNL1     0.0576
     64 H         5.511861   -1.455185   -6.031265 H        1 UNL1     0.0615
     65 H         3.993782   -3.436493   -7.909486 H        1 UNL1     0.0622
     66 H         -4.521733   -3.007211   -2.8314 H        1 UNL1     0.0645
     67 H         -3.486315   -3.012505   -0.979891 H        1 UNL1     0.0362
     68 H         -4.189315   -0.985604   -0.517899 H        1 UNL1     0.0741
     69 H         -2.685777   1.196338   -0.587841 H        1 UNL1     0.0359
     70 H         -1.511418   1.81854   -2.385967 H        1 UNL1     0.0600
     71 H         0.418228   1.235108   -1.585477 H        1 UNL1     0.0348
     72 H         0.669429   0.245281   -3.796627 H        1 UNL1     0.0602
     73 H         -2.497061   -3.664772   -3.923768 H        1 UNL1     0.0628
     74 H         -3.200427   -1.220699   -5.653626 H        1 UNL1     0.1022
     75 H         7.770544   -5.139467   -7.33016 H        1 UNL1     0.0279
     76 H         7.985831   -4.497179   -8.909533 H        1 UNL1     0.0279
     77 H         8.079311   -3.455681   -7.432427 H        1 UNL1     0.0279
     78 H         6.030898   -6.390258   -7.098198 H        1 UNL1     0.1553
     79 H         5.64494   -5.337354   -5.464596 H        1 UNL1     0.1484
     80 H         3.174263   -5.372577   -2.577728 H        1 UNL1     0.0317
     81 H         3.169691   -6.588151   -3.847485 H        1 UNL1     0.0317
     82 H         5.677545   -6.643345   -3.883908 H        1 UNL1     0.0428
     83 H         5.016042   -6.999237   -2.303573 H        1 UNL1     0.0428
     84 H         6.455302   -3.042743   -2.918249 H        1 UNL1     0.0428
     85 H         6.618439   -4.134972   -4.248491 H        1 UNL1     0.0428
     86 H         4.692386   -2.550482   -4.316053 H        1 UNL1     0.0317
     87 H         4.012278   -3.160061   -2.877923 H        1 UNL1     0.0317
     88 H         7.863842   -4.740441   -2.089098 H        1 UNL1     0.0429
     89 H         6.958585   -5.373272   -0.712047 H        1 UNL1     0.0429
     90 H         7.665199   -6.88094   -3.304264 H        1 UNL1     0.0308
     91 H         9.305221   -8.092398   -2.063551 H        1 UNL1     0.0233
     92 H         9.494381   -6.432544   -1.443391 H        1 UNL1     0.0233
     93 H         8.641243   -7.635031   -0.499577 H        1 UNL1     0.0233
     94 H         6.468712   -8.710527   -2.618251 H        1 UNL1     0.0233
     95 H         6.448503   -8.213617   -0.919134 H        1 UNL1     0.0233
     96 H         5.402113   -7.389642   -2.09817 H        1 UNL1     0.0233
     97 H         -1.481126   -7.07372   -10.778868 H        1 UNL1     0.0280
     98 H         -2.264489   -7.506948   -9.283594 H        1 UNL1     0.0280
     99 H         -2.450925   -5.851714   -9.935648 H        1 UNL1     0.0280
     100 H         1.939874   -7.754169   -10.306643 H        1 UNL1     0.2922
     101 H         2.978159   1.598752   -5.042317 H        1 UNL1     0.0236
     102 H         1.1803   1.479228   -5.18189 H        1 UNL1     0.0236
     103 H         2.221303   1.023888   -6.495082 H        1 UNL1     0.0236
     104 H         2.866961   1.120907   -3.319344 H        1 UNL1     0.2098
     105 H         -0.748731   -1.340616   -0.808047 H        1 UNL1     0.0234
     106 H         1.023904   -1.157293   -0.68454 H        1 UNL1     0.0234
     107 H         0.0   0.0   0.0 H        1 UNL1     0.0234
     108 H         -1.13349   0.671694   -4.276756 H        1 UNL1     0.2098
     109 H         -1.678545   -4.102098   -1.468307 H        1 UNL1     0.0234
     110 H         -1.100766   -2.91753   -2.68312 H        1 UNL1     0.0234
     111 H         -0.837742   -2.639912   -0.997122 H        1 UNL1     0.0234
     112 H         -1.301075   0.796174   1.400227 H        1 UNL1     0.0342
     113 H         -2.718593   1.788765   1.89383 H        1 UNL1     0.0342
     114 H         -1.863336   0.8004   3.081113 H        1 UNL1     0.0342
     115 H         -4.167281   1.990767   -2.391445 H        1 UNL1     0.0234
     116 H         -4.840171   0.359446   -2.473893 H        1 UNL1     0.0234
     117 H         -4.919733   1.354316   -1.005033 H        1 UNL1     0.0234
     118 H         -1.518663   -6.046462   -5.391497 H        1 UNL1     0.0309
     119 H         -2.476265   -4.8406   -4.476644 H        1 UNL1     0.0309
     120 H         -3.161611   -5.734366   -5.815912 H        1 UNL1     0.0309
     121 H         -2.402184   -0.393305   -3.597352 H        1 UNL1     0.0524
     122 H         -3.594446   0.569611   -4.479488 H        1 UNL1     0.0524
     123 H         -3.45721   0.740994   -2.711569 H        1 UNL1     0.0524
@<TRIPOS>BOND
     1     1     2    1
     2     1    42    1
     3     2     3    2
     4     3     4    1
     5     4     5    2
     6     5     7    1
     7     6    75    1
     8     6    76    1
     9     6    77    1
    10     7     9   am
    11     9    10    1
    12    10    11    2
    13    10    43    1
    14    11    14    1
    15    11    15    1
    16    12    13   ar
    17    12    27   ar
    18    12    43    1
    19    13    14    1
    20    13    30   ar
    21    14    17    2
    22    15    16    1
    23    16    17    1
    24    16    18    1
    25    16    22    1
    26    18    19    1
    27    19    20    1
    28    20    21    1
    29    21    22    1
    30    23    24    1
    31    23    88    1
    32    23    89    1
    33    24    25    1
    34    24    26    1
    35    24    90    1
    36    25    91    1
    37    25    92    1
    38    25    93    1
    39    26    94    1
    40    26    95    1
    41    26    96    1
    42    27    28   ar
    43    28    29   ar
    44    29    30   ar
    45    29    31    1
    46    30    33    1
    47    31    32    1
    48    32    33    1
    49    32    35    1
    50    34    97    1
    51    34    98    1
    52    34    99    1
    53    35    61    1
    54    36    37    1
    55    36    60    1
    56    37    38    1
    57    38    39    1
    58    39    40    1
    59    40    41    1
    60    41    42    1
    61    45   100    1
    62    47   101    1
    63    47   102    1
    64    47   103    1
    65    48   104    1
    66    49   105    1
    67    49   106    1
    68    49   107    1
    69    50   108    1
    70    51    59    1
    71    52   109    1
    72    52   110    1
    73    52   111    1
    74    53    54    1
    75    54    55    2
    76    54    56    1
    77    56   112    1
    78    56   113    1
    79    56   114    1
    80    57   115    1
    81    57   116    1
    82    57   117    1
    83    58   118    1
    84    58   119    1
    85    58   120    1
    86    59   121    1
    87    59   122    1
    88    59   123    1
    89    60    61    2
    90     1    47    1
    91     1    62    1
    92     2    63    1
    93     3    64    1
    94     4    65    1
    95     5     6    1
    96     7     8    2
    97     9    78    1
    98    15    79    1
    99    18    80    1
   100    18    81    1
   101    19    82    1
   102    19    83    1
   103    20    23    1
   104    21    84    1
   105    21    85    1
   106    22    86    1
   107    22    87    1
   108    27    45    1
   109    28    34    1
   110    32    58    1
   111    33    46    2
   112    36    51    1
   113    36    66    1
   114    37    52    1
   115    37    67    1
   116    38    53    1
   117    38    68    1
   118    42    48    1
   119    42    72    1
   120    43    44    2
   121    60    73    1
   122    61    74    1
   123    39    69    1
   124    39    57    1
   125    40    70    1
   126    40    50    1
   127    41    71    1
   128    41    49    1
