@<TRIPOS>MOLECULE
*****
 123 128 0 0 0
SMALL
GASTEIGER

@<TRIPOS>ATOM
     1 C         5.167599   1.747057   0.492937 C.3        1 UNL1     0.0009
     2 C         6.604703   2.55302   -0.356881 C.2        1 UNL1     -0.0787
     3 C         7.886687   2.454672   -1.022383 C.2        1 UNL1     -0.0649
     4 C         8.764662   3.689788   -1.77737 C.2        1 UNL1     -0.0542
     5 C         9.784967   3.982444   -2.715671 C.2        1 UNL1     0.0115
     6 C         10.913151   3.356953   -3.581283 C.3        1 UNL1     -0.0348
     7 C         9.880878   5.465878   -3.321652 C.2        1 UNL1     0.2441
     8 O         10.704934   6.287147   -2.943532 O.2        1 UNL1     -0.2702
     9 N         9.130956   5.673471   -4.49241 N.am        1 UNL1     -0.2772
     10 C         7.848295   6.060434   -4.178783 C.2        1 UNL1     0.1049
     11 C         7.002156   5.089178   -3.887351 C.2        1 UNL1     0.0801
     12 C         6.550104   7.666999   -2.76776 C.ar        1 UNL1     0.0753
     13 C         5.790614   6.539162   -2.320809 C.ar        1 UNL1     0.0305
     14 C         5.90728   5.233645   -2.966616 C.2        1 UNL1     0.0924
     15 N         7.124405   3.760217   -4.046868 N.pl3        1 UNL1     -0.3170
     16 C         5.8543   3.161326   -3.733152 C.3        1 UNL1     0.1275
     17 N         5.217992   4.11642   -2.753035 N.2        1 UNL1     -0.2557
     18 C         5.001726   3.221085   -4.996975 C.3        1 UNL1     0.0016
     19 C         5.756628   2.537148   -6.125666 C.3        1 UNL1     0.0026
     20 N         6.026273   1.158833   -5.740221 N.3        1 UNL1     -0.3018
     21 C         6.789331   0.997786   -4.500795 C.3        1 UNL1     0.0026
     22 C         6.010568   1.688161   -3.379722 C.3        1 UNL1     0.0016
     23 C         6.470756   0.339537   -6.850101 C.3        1 UNL1     0.0012
     24 C         5.315434   0.090746   -7.832491 C.3        1 UNL1     -0.0339
     25 C         5.341528   1.094312   -8.997064 C.3        1 UNL1     -0.0615
     26 C         5.354493   -1.343804   -8.329805 C.3        1 UNL1     -0.0615
     27 C         6.34572   8.934572   -2.227756 C.ar        1 UNL1     0.1347
     28 C         5.38655   9.204086   -1.267858 C.ar        1 UNL1     0.0342
     29 C         4.684551   8.069693   -0.80795 C.ar        1 UNL1     0.1435
     30 C         4.903707   6.78777   -1.313782 C.ar        1 UNL1     0.0774
     31 O         3.643423   8.183287   0.04537 O.3        1 UNL1     -0.4436
     32 C         2.9214   6.950734   -0.09735 C.3        1 UNL1     0.3143
     33 C         3.934502   5.957501   -0.629632 C.2        1 UNL1     0.2504
     34 C         4.940038   10.570177   -0.826811 C.3        1 UNL1     -0.0327
     35 O         2.56037   6.513702   1.218671 O.2        1 UNL1     -0.4528
     36 C         -0.683184   4.582634   0.820652 C.3        1 UNL1     0.0854
     37 C         -0.988697   3.322442   -0.07718 C.3        1 UNL1     0.0236
     38 C         -1.589789   2.061318   0.710219 C.3        1 UNL1     0.1131
     39 C         -0.864447   1.52973   2.011589 C.3        1 UNL1     0.0200
     40 C         0.796693   1.383666   2.053032 C.3        1 UNL1     0.0661
     41 C         1.756056   0.614933   0.884151 C.3        1 UNL1     0.0091
     42 C         3.463863   0.977158   0.320599 C.3        1 UNL1     0.0661
     43 C         7.500301   7.459379   -3.888599 C.2        1 UNL1     0.2131
     44 O         7.900597   8.357573   -4.606756 O.2        1 UNL1     -0.2851
     45 O         7.15839   9.969583   -2.685747 O.3        1 UNL1     -0.5056
     46 O         3.950099   4.753918   -0.499249 O.2        1 UNL1     -0.2836
     47 C         5.563553   1.316987   1.931075 C.3        1 UNL1     -0.0566
     48 O         3.911981   -0.434111   0.402008 O.3        1 UNL1     -0.3909
     49 C         0.922037   0.383004   -0.356056 C.3        1 UNL1     -0.0577
     50 O         1.397187   2.601217   2.446351 O.3        1 UNL1     -0.3910
     51 O         -0.807598   4.392542   2.211989 O.3        1 UNL1     -0.3753
     52 C         0.05593   3.162029   -1.229556 C.3        1 UNL1     -0.0564
     53 O         -2.192537   1.022812   -0.190073 O.3        1 UNL1     -0.4608
     54 C         -2.427411   -0.283979   0.149134 C.2        1 UNL1     0.3042
     55 O         -1.858534   -1.28314   -0.288923 O.2        1 UNL1     -0.2512
     56 C         -3.467685   -0.449654   1.22016 C.3        1 UNL1     0.0332
     57 C         -1.585511   2.198534   3.272914 C.3        1 UNL1     -0.0567
     58 C         1.846486   7.196506   -1.181641 C.3        1 UNL1     0.0210
     59 C         -1.151498   5.565047   2.948759 C.3        1 UNL1     0.0372
     60 C         0.646048   5.211385   0.590492 C.2        1 UNL1     -0.0208
     61 C         1.558952   5.646057   1.460211 C.2        1 UNL1     0.0882
     62 H         4.691964   2.731347   0.580433 H        1 UNL1     0.0365
     63 H         6.338759   3.606867   -0.251287 H        1 UNL1     0.0576
     64 H         8.344086   1.487753   -1.243656 H        1 UNL1     0.0615
     65 H         8.277795   4.605222   -1.430349 H        1 UNL1     0.0622
     66 H         -1.427547   5.32949   0.51053 H        1 UNL1     0.0645
     67 H         -1.854035   3.63227   -0.688536 H        1 UNL1     0.0362
     68 H         -2.536791   2.498372   1.06192 H        1 UNL1     0.0741
     69 H         -1.196317   0.518671   2.206604 H        1 UNL1     0.0359
     70 H         0.908101   0.723019   2.93405 H        1 UNL1     0.0600
     71 H         1.799245   -0.406382   1.310774 H        1 UNL1     0.0348
     72 H         3.357949   1.465082   1.300409 H        1 UNL1     0.0602
     73 H         0.764197   5.40893   -0.445976 H        1 UNL1     0.0628
     74 H         1.541143   5.435058   2.529977 H        1 UNL1     0.1022
     75 H         10.957263   2.251611   -3.42861 H        1 UNL1     0.0279
     76 H         10.799743   3.44012   -4.659843 H        1 UNL1     0.0279
     77 H         11.918259   3.661243   -3.254381 H        1 UNL1     0.0279
     78 H         9.068785   4.803708   -5.017505 H        1 UNL1     0.1553
     79 H         7.789657   3.332218   -4.664272 H        1 UNL1     0.1484
     80 H         4.040257   2.730386   -4.803173 H        1 UNL1     0.0317
     81 H         4.775487   4.257994   -5.267691 H        1 UNL1     0.0317
     82 H         6.6875   3.068241   -6.373312 H        1 UNL1     0.0428
     83 H         5.131656   2.592766   -7.017499 H        1 UNL1     0.0428
     84 H         6.909273   -0.045301   -4.191934 H        1 UNL1     0.0428
     85 H         7.819556   1.365534   -4.604308 H        1 UNL1     0.0428
     86 H         6.526747   1.437351   -2.471624 H        1 UNL1     0.0317
     87 H         5.030953   1.210787   -3.254963 H        1 UNL1     0.0317
     88 H         7.267083   0.881255   -7.377073 H        1 UNL1     0.0429
     89 H         6.902995   -0.606479   -6.499393 H        1 UNL1     0.0429
     90 H         4.362508   0.19758   -7.300766 H        1 UNL1     0.0308
     91 H         6.29172   1.051462   -9.537807 H        1 UNL1     0.0233
     92 H         4.523163   0.898743   -9.693942 H        1 UNL1     0.0233
     93 H         5.214349   2.129842   -8.658926 H        1 UNL1     0.0233
     94 H         4.658327   -1.472905   -9.165581 H        1 UNL1     0.0233
     95 H         6.358855   -1.588276   -8.68681 H        1 UNL1     0.0233
     96 H         5.079761   -2.047805   -7.539316 H        1 UNL1     0.0233
     97 H         4.146548   10.52041   -0.08713 H        1 UNL1     0.0280
     98 H         5.752879   11.139823   -0.357717 H        1 UNL1     0.0280
     99 H         4.566692   11.135097   -1.696623 H        1 UNL1     0.0280
     100 H         6.69165   10.720439   -3.008225 H        1 UNL1     0.2922
     101 H         4.700514   0.883455   2.435923 H        1 UNL1     0.0236
     102 H         6.014474   2.122013   2.510373 H        1 UNL1     0.0236
     103 H         6.319556   0.514086   1.929863 H        1 UNL1     0.0236
     104 H         4.331317   -0.5605   1.275594 H        1 UNL1     0.2098
     105 H         0.709769   1.282078   -0.929135 H        1 UNL1     0.0234
     106 H         1.291304   -0.404928   -1.012359 H        1 UNL1     0.0234
     107 H         0.0   -0.0   0.0 H        1 UNL1     0.0234
     108 H         1.199564   3.259561   1.752596 H        1 UNL1     0.2098
     109 H         1.080662   3.048122   -0.84921 H        1 UNL1     0.0234
     110 H         -0.176641   2.33521   -1.90928 H        1 UNL1     0.0234
     111 H         0.07751   4.045038   -1.882071 H        1 UNL1     0.0234
     112 H         -3.600555   -1.511441   1.448852 H        1 UNL1     0.0342
     113 H         -3.224458   0.116007   2.118332 H        1 UNL1     0.0342
     114 H         -4.422097   -0.066397   0.833669 H        1 UNL1     0.0342
     115 H         -2.655217   1.950572   3.310748 H        1 UNL1     0.0234
     116 H         -1.149313   1.918344   4.233786 H        1 UNL1     0.0234
     117 H         -1.623765   3.300417   3.224619 H        1 UNL1     0.0234
     118 H         0.945486   7.683559   -0.769349 H        1 UNL1     0.0309
     119 H         2.216188   7.784637   -2.027587 H        1 UNL1     0.0309
     120 H         1.457709   6.264796   -1.606935 H        1 UNL1     0.0309
     121 H         -0.347022   6.287401   2.813184 H        1 UNL1     0.0524
     122 H         -2.08145   6.031292   2.582915 H        1 UNL1     0.0524
     123 H         -1.267446   5.326463   4.002195 H        1 UNL1     0.0524
@<TRIPOS>BOND
     1     1     2    1
     2     1    42    1
     3     2     3    2
     4     3     4    1
     5     4     5    2
     6     5     7    1
     7     6    75    1
     8     6    76    1
     9     6    77    1
    10     7     9   am
    11     9    10    1
    12    10    11    2
    13    10    43    1
    14    11    14    1
    15    11    15    1
    16    12    13   ar
    17    12    27   ar
    18    12    43    1
    19    13    14    1
    20    13    30   ar
    21    14    17    2
    22    15    16    1
    23    16    17    1
    24    16    18    1
    25    16    22    1
    26    18    19    1
    27    19    20    1
    28    20    21    1
    29    21    22    1
    30    23    24    1
    31    23    88    1
    32    23    89    1
    33    24    25    1
    34    24    26    1
    35    24    90    1
    36    25    91    1
    37    25    92    1
    38    25    93    1
    39    26    94    1
    40    26    95    1
    41    26    96    1
    42    27    28   ar
    43    28    29   ar
    44    29    30   ar
    45    29    31    1
    46    30    33    1
    47    31    32    1
    48    32    33    1
    49    32    35    1
    50    34    97    1
    51    34    98    1
    52    34    99    1
    53    35    61    1
    54    36    37    1
    55    36    60    1
    56    37    38    1
    57    38    39    1
    58    39    40    1
    59    40    41    1
    60    41    42    1
    61    45   100    1
    62    47   101    1
    63    47   102    1
    64    47   103    1
    65    48   104    1
    66    49   105    1
    67    49   106    1
    68    49   107    1
    69    50   108    1
    70    51    59    1
    71    52   109    1
    72    52   110    1
    73    52   111    1
    74    53    54    1
    75    54    55    2
    76    54    56    1
    77    56   112    1
    78    56   113    1
    79    56   114    1
    80    57   115    1
    81    57   116    1
    82    57   117    1
    83    58   118    1
    84    58   119    1
    85    58   120    1
    86    59   121    1
    87    59   122    1
    88    59   123    1
    89    60    61    2
    90     1    47    1
    91     1    62    1
    92     2    63    1
    93     3    64    1
    94     4    65    1
    95     5     6    1
    96     7     8    2
    97     9    78    1
    98    15    79    1
    99    18    80    1
   100    18    81    1
   101    19    82    1
   102    19    83    1
   103    20    23    1
   104    21    84    1
   105    21    85    1
   106    22    86    1
   107    22    87    1
   108    27    45    1
   109    28    34    1
   110    32    58    1
   111    33    46    2
   112    36    51    1
   113    36    66    1
   114    37    52    1
   115    37    67    1
   116    38    53    1
   117    38    68    1
   118    42    48    1
   119    42    72    1
   120    43    44    2
   121    60    73    1
   122    61    74    1
   123    39    69    1
   124    39    57    1
   125    40    70    1
   126    40    50    1
   127    41    71    1
   128    41    49    1
