@<TRIPOS>MOLECULE
*****
 123 128 0 0 0
SMALL
GASTEIGER

@<TRIPOS>ATOM
     1 C         2.91522   -1.950015   4.208407 C.3        1 UNL1     0.0009
     2 C         2.91425   -2.35897   6.016663 C.2        1 UNL1     -0.0787
     3 C         3.278167   -2.030529   7.378918 C.2        1 UNL1     -0.0649
     4 C         2.840532   -2.843866   8.797831 C.2        1 UNL1     -0.0542
     5 C         2.709468   -2.736361   10.204367 C.2        1 UNL1     0.0115
     6 C         3.032949   -1.840688   11.431744 C.3        1 UNL1     -0.0348
     7 C         1.801783   -3.806488   10.984061 C.2        1 UNL1     0.2441
     8 O         2.271533   -4.74284   11.615809 O.2        1 UNL1     -0.2702
     9 N         0.448057   -3.449408   11.110837 N.am        1 UNL1     -0.2772
     10 C         -0.267221   -3.882695   10.018152 C.2        1 UNL1     0.1049
     11 C         -0.229513   -3.104324   8.951878 C.2        1 UNL1     0.0801
     12 C         -0.676544   -5.891514   8.584821 C.ar        1 UNL1     0.0753
     13 C         -0.419605   -5.044223   7.460237 C.ar        1 UNL1     0.0305
     14 C         -0.317315   -3.593606   7.602704 C.2        1 UNL1     0.0924
     15 N         0.223264   -1.846077   8.816476 N.pl3        1 UNL1     -0.3170
     16 C         -0.121923   -1.394737   7.494586 C.3        1 UNL1     0.1275
     17 N         -0.183375   -2.656359   6.668598 N.2        1 UNL1     -0.2557
     18 C         -1.549421   -0.859986   7.557768 C.3        1 UNL1     0.0016
     19 C         -1.617845   0.218532   8.62721 C.3        1 UNL1     0.0026
     20 N         -0.676737   1.276241   8.285748 N.3        1 UNL1     -0.3018
     21 C         0.715776   0.846734   8.141526 C.3        1 UNL1     0.0026
     22 C         0.761812   -0.233264   7.059224 C.3        1 UNL1     0.0016
     23 C         -0.873842   2.480547   9.067693 C.3        1 UNL1     0.0012
     24 C         0.097448   3.581929   8.614584 C.3        1 UNL1     -0.0339
     25 C         0.475824   3.423319   7.132784 C.3        1 UNL1     -0.0615
     26 C         -0.498831   4.950174   8.895899 C.3        1 UNL1     -0.0615
     27 C         -0.89264   -7.258145   8.424384 C.ar        1 UNL1     0.1347
     28 C         -0.915415   -7.882337   7.189915 C.ar        1 UNL1     0.0342
     29 C         -0.611581   -7.037156   6.101559 C.ar        1 UNL1     0.1435
     30 C         -0.357316   -5.673217   6.250691 C.ar        1 UNL1     0.0774
     31 O         -0.701795   -7.471328   4.825486 O.3        1 UNL1     -0.4436
     32 C         -0.793633   -6.273007   4.040332 C.3        1 UNL1     0.3143
     33 C         -0.174038   -5.18865   4.898519 C.2        1 UNL1     0.2504
     34 C         -1.385964   -9.284291   6.919341 C.3        1 UNL1     -0.0327
     35 O         0.060096   -6.443027   2.902136 O.2        1 UNL1     -0.4528
     36 C         -1.508388   -4.404059   0.110979 C.3        1 UNL1     0.0854
     37 C         -1.858611   -2.866646   0.075954 C.3        1 UNL1     0.0236
     38 C         -1.218038   -2.055316   -1.150077 C.3        1 UNL1     0.1131
     39 C         0.330482   -2.177762   -1.44901 C.3        1 UNL1     0.0200
     40 C         1.437844   -2.13168   -0.202389 C.3        1 UNL1     0.0661
     41 C         1.498755   -0.96764   1.030052 C.3        1 UNL1     0.0091
     42 C         2.027083   -1.114578   2.780675 C.3        1 UNL1     0.0661
     43 C         -0.794053   -5.251975   9.918778 C.2        1 UNL1     0.2131
     44 O         -1.37695   -5.75971   10.859614 O.2        1 UNL1     -0.2851
     45 O         -1.09034   -8.019391   9.574539 O.3        1 UNL1     -0.5056
     46 O         0.368618   -4.165777   4.544811 O.2        1 UNL1     -0.2836
     47 C         4.3184   -2.210307   3.597412 C.3        1 UNL1     -0.0566
     48 O         2.878821   0.098824   2.744415 O.3        1 UNL1     -0.3909
     49 C         0.206329   -0.18209   1.023666 C.3        1 UNL1     -0.0577
     50 O         1.634619   -3.421503   0.341082 O.3        1 UNL1     -0.3910
     51 O         -0.547008   -4.838348   -0.824207 O.3        1 UNL1     -0.3753
     52 C         -1.957157   -2.259469   1.513513 C.3        1 UNL1     -0.0564
     53 O         -1.83482   -0.703899   -1.363572 O.3        1 UNL1     -0.4608
     54 C         -1.684408   0.378393   -0.53656 C.2        1 UNL1     0.3042
     55 O         -0.821838   1.253414   -0.600986 O.2        1 UNL1     -0.2512
     56 C         -2.753608   0.486351   0.513139 C.3        1 UNL1     0.0332
     57 C         0.517649   -3.302204   -2.570961 C.3        1 UNL1     -0.0567
     58 C         -2.301718   -5.975026   3.871754 C.3        1 UNL1     0.0210
     59 C         0.678977   -5.295508   -0.255146 C.3        1 UNL1     0.0372
     60 C         -1.079545   -4.921222   1.43906 C.2        1 UNL1     -0.0208
     61 C         -0.070792   -5.729559   1.767315 C.2        1 UNL1     0.0882
     62 H         2.320959   -2.852986   4.023454 H        1 UNL1     0.0365
     63 H         2.436393   -3.340773   6.003092 H        1 UNL1     0.0576
     64 H         3.761694   -1.083771   7.629835 H        1 UNL1     0.0615
     65 H         2.445258   -3.798341   8.439752 H        1 UNL1     0.0622
     66 H         -2.457905   -4.908704   -0.11661 H        1 UNL1     0.0645
     67 H         -2.931805   -2.841959   -0.181352 H        1 UNL1     0.0362
     68 H         -1.718141   -2.563788   -1.988454 H        1 UNL1     0.0741
     69 H         0.632998   -1.342093   -2.065898 H        1 UNL1     0.0359
     70 H         2.362486   -1.929238   -0.776075 H        1 UNL1     0.0600
     71 H         2.197617   -0.239405   0.573737 H        1 UNL1     0.0348
     72 H         2.464322   -1.977966   2.258468 H        1 UNL1     0.0602
     73 H         -1.800562   -4.64895   2.1693 H        1 UNL1     0.0628
     74 H         0.740248   -6.008388   1.093738 H        1 UNL1     0.1022
     75 H         3.698843   -0.994746   11.135095 H        1 UNL1     0.0279
     76 H         2.192241   -1.326669   11.892245 H        1 UNL1     0.0279
     77 H         3.654384   -2.353499   12.180439 H        1 UNL1     0.0279
     78 H         0.363889   -2.435761   11.14974 H        1 UNL1     0.1553
     79 H         0.361301   -1.217901   9.586719 H        1 UNL1     0.1484
     80 H         -1.827405   -0.465647   6.572888 H        1 UNL1     0.0317
     81 H         -2.258445   -1.663202   7.785321 H        1 UNL1     0.0317
     82 H         -1.411054   -0.187237   9.62846 H        1 UNL1     0.0428
     83 H         -2.644521   0.584752   8.656711 H        1 UNL1     0.0428
     84 H         1.388037   1.643054   7.807235 H        1 UNL1     0.0428
     85 H         1.144198   0.520437   9.099285 H        1 UNL1     0.0428
     86 H         1.804416   -0.426976   6.887641 H        1 UNL1     0.0317
     87 H         0.419687   0.18011   6.10258 H        1 UNL1     0.0317
     88 H         -1.901111   2.830799   8.902351 H        1 UNL1     0.0429
     89 H         -0.771509   2.279709   10.141921 H        1 UNL1     0.0429
     90 H         1.012023   3.524241   9.216613 H        1 UNL1     0.0308
     91 H         1.039214   2.500953   6.962683 H        1 UNL1     0.0233
     92 H         -0.417788   3.418823   6.504257 H        1 UNL1     0.0233
     93 H         1.100312   4.248926   6.770538 H        1 UNL1     0.0233
     94 H         0.296417   5.698762   8.97976 H        1 UNL1     0.0233
     95 H         -1.156276   5.247381   8.074074 H        1 UNL1     0.0233
     96 H         -1.073924   4.951258   9.826079 H        1 UNL1     0.0233
     97 H         -1.15809   -9.956341   7.741322 H        1 UNL1     0.0280
     98 H         -2.473862   -9.336292   6.781389 H        1 UNL1     0.0280
     99 H         -0.894182   -9.669834   6.011265 H        1 UNL1     0.0280
     100 H         -1.992543   -8.142907   9.812018 H        1 UNL1     0.2922
     101 H         4.943524   -1.326412   3.722329 H        1 UNL1     0.0236
     102 H         4.279608   -2.540501   2.55989 H        1 UNL1     0.0236
     103 H         4.858638   -3.012357   4.127555 H        1 UNL1     0.0236
     104 H         3.318245   0.124774   1.871945 H        1 UNL1     0.2098
     105 H         -0.643779   -0.712623   1.445166 H        1 UNL1     0.0234
     106 H         0.278655   0.817132   1.452911 H        1 UNL1     0.0234
     107 H         0.0   0.0   0.0 H        1 UNL1     0.0234
     108 H         2.09961   -3.309677   1.192578 H        1 UNL1     0.2098
     109 H         -2.751449   -1.504103   1.592478 H        1 UNL1     0.0234
     110 H         -2.093537   -3.017387   2.292425 H        1 UNL1     0.0234
     111 H         -1.029581   -1.74655   1.800677 H        1 UNL1     0.0234
     112 H         -3.530066   -0.263064   0.33193 H        1 UNL1     0.0342
     113 H         -2.349567   0.394697   1.520211 H        1 UNL1     0.0342
     114 H         -3.217441   1.478847   0.429623 H        1 UNL1     0.0342
     115 H         1.366216   -3.081287   -3.233018 H        1 UNL1     0.0234
     116 H         0.665797   -4.307495   -2.171598 H        1 UNL1     0.0234
     117 H         -0.313373   -3.342832   -3.296008 H        1 UNL1     0.0234
     118 H         -2.758125   -5.604517   4.806325 H        1 UNL1     0.0309
     119 H         -2.511958   -5.265885   3.064833 H        1 UNL1     0.0309
     120 H         -2.885064   -6.87412   3.644945 H        1 UNL1     0.0309
     121 H         0.516406   -5.429725   0.813925 H        1 UNL1     0.0524
     122 H         0.994613   -6.26827   -0.667634 H        1 UNL1     0.0524
     123 H         1.467102   -4.567654   -0.42597 H        1 UNL1     0.0524
@<TRIPOS>BOND
     1     1     2    1
     2     1    42    1
     3     2     3    2
     4     3     4    1
     5     4     5    2
     6     5     7    1
     7     6    75    1
     8     6    76    1
     9     6    77    1
    10     7     9   am
    11     9    10    1
    12    10    11    2
    13    10    43    1
    14    11    14    1
    15    11    15    1
    16    12    13   ar
    17    12    27   ar
    18    12    43    1
    19    13    14    1
    20    13    30   ar
    21    14    17    2
    22    15    16    1
    23    16    17    1
    24    16    18    1
    25    16    22    1
    26    18    19    1
    27    19    20    1
    28    20    21    1
    29    21    22    1
    30    23    24    1
    31    23    88    1
    32    23    89    1
    33    24    25    1
    34    24    26    1
    35    24    90    1
    36    25    91    1
    37    25    92    1
    38    25    93    1
    39    26    94    1
    40    26    95    1
    41    26    96    1
    42    27    28   ar
    43    28    29   ar
    44    29    30   ar
    45    29    31    1
    46    30    33    1
    47    31    32    1
    48    32    33    1
    49    32    35    1
    50    34    97    1
    51    34    98    1
    52    34    99    1
    53    35    61    1
    54    36    37    1
    55    36    60    1
    56    37    38    1
    57    38    39    1
    58    39    40    1
    59    40    41    1
    60    41    42    1
    61    45   100    1
    62    47   101    1
    63    47   102    1
    64    47   103    1
    65    48   104    1
    66    49   105    1
    67    49   106    1
    68    49   107    1
    69    50   108    1
    70    51    59    1
    71    52   109    1
    72    52   110    1
    73    52   111    1
    74    53    54    1
    75    54    55    2
    76    54    56    1
    77    56   112    1
    78    56   113    1
    79    56   114    1
    80    57   115    1
    81    57   116    1
    82    57   117    1
    83    58   118    1
    84    58   119    1
    85    58   120    1
    86    59   121    1
    87    59   122    1
    88    59   123    1
    89    60    61    2
    90     1    47    1
    91     1    62    1
    92     2    63    1
    93     3    64    1
    94     4    65    1
    95     5     6    1
    96     7     8    2
    97     9    78    1
    98    15    79    1
    99    18    80    1
   100    18    81    1
   101    19    82    1
   102    19    83    1
   103    20    23    1
   104    21    84    1
   105    21    85    1
   106    22    86    1
   107    22    87    1
   108    27    45    1
   109    28    34    1
   110    32    58    1
   111    33    46    2
   112    36    51    1
   113    36    66    1
   114    37    52    1
   115    37    67    1
   116    38    53    1
   117    38    68    1
   118    42    48    1
   119    42    72    1
   120    43    44    2
   121    60    73    1
   122    61    74    1
   123    39    69    1
   124    39    57    1
   125    40    70    1
   126    40    50    1
   127    41    71    1
   128    41    49    1
