@<TRIPOS>MOLECULE
*****
 123 128 0 0 0
SMALL
GASTEIGER

@<TRIPOS>ATOM
     1 C         2.05276   1.587312   -4.808392 C.3        1 UNL1     0.0009
     2 C         2.627703   1.015688   -6.475643 C.2        1 UNL1     -0.0787
     3 C         3.700646   0.738749   -7.407385 C.2        1 UNL1     -0.0649
     4 C         3.589543   0.033963   -8.942732 C.2        1 UNL1     -0.0542
     5 C         4.301926   -0.639886   -9.965237 C.2        1 UNL1     0.0115
     6 C         5.720208   -1.053375   -10.445679 C.3        1 UNL1     -0.0348
     7 C         3.479625   -1.452894   -11.078713 C.2        1 UNL1     0.2441
     8 O         3.284872   -1.023703   -12.207603 O.2        1 UNL1     -0.2702
     9 N         3.223178   -2.797095   -10.756981 N.am        1 UNL1     -0.2772
     10 C         2.050094   -2.905314   -10.046008 C.2        1 UNL1     0.1049
     11 C         2.133418   -2.678666   -8.747582 C.2        1 UNL1     0.0801
     12 C         -0.347935   -2.193481   -10.055434 C.ar        1 UNL1     0.0753
     13 C         -0.145724   -1.768766   -8.703644 C.ar        1 UNL1     0.0305
     14 C         1.065285   -2.118708   -7.964694 C.2        1 UNL1     0.0924
     15 N         3.215396   -2.561783   -7.958792 N.pl3        1 UNL1     -0.3170
     16 C         2.759953   -2.491509   -6.595748 C.3        1 UNL1     0.1275
     17 N         1.375227   -1.898764   -6.690139 N.2        1 UNL1     -0.2557
     18 C         2.574669   -3.924677   -6.106463 C.3        1 UNL1     0.0016
     19 C         3.883585   -4.67534   -6.293104 C.3        1 UNL1     0.0026
     20 N         4.925404   -3.994134   -5.537061 N.3        1 UNL1     -0.3018
     21 C         5.135414   -2.589627   -5.894305 C.3        1 UNL1     0.0026
     22 C         3.809356   -1.8536   -5.694985 C.3        1 UNL1     0.0016
     23 C         6.132852   -4.784455   -5.402505 C.3        1 UNL1     0.0012
     24 C         5.894903   -5.975433   -4.460854 C.3        1 UNL1     -0.0339
     25 C         7.156465   -6.310778   -3.648411 C.3        1 UNL1     -0.0615
     26 C         4.706278   -5.695832   -3.557652 C.3        1 UNL1     -0.0615
     27 C         -1.553702   -1.960184   -10.712562 C.ar        1 UNL1     0.1347
     28 C         -2.639465   -1.349648   -10.110553 C.ar        1 UNL1     0.0342
     29 C         -2.400741   -0.896379   -8.795744 C.ar        1 UNL1     0.1435
     30 C         -1.185948   -1.090838   -8.137197 C.ar        1 UNL1     0.0774
     31 O         -3.392491   -0.380755   -8.037081 O.3        1 UNL1     -0.4436
     32 C         -2.910423   -0.486838   -6.689035 C.3        1 UNL1     0.3143
     33 C         -1.401356   -0.549109   -6.811718 C.2        1 UNL1     0.2504
     34 C         -4.036428   -1.291302   -10.662991 C.3        1 UNL1     -0.0327
     35 O         -3.224662   0.74406   -6.026166 O.2        1 UNL1     -0.4528
     36 C         -3.730179   -0.142426   -2.370119 C.3        1 UNL1     0.0854
     37 C         -2.737076   -0.850335   -1.370051 C.3        1 UNL1     0.0236
     38 C         -2.444918   -0.037458   -0.018896 C.3        1 UNL1     0.1131
     39 C         -2.010599   1.481706   -0.094894 C.3        1 UNL1     0.0200
     40 C         -0.884547   1.9833   -1.218659 C.3        1 UNL1     0.0661
     41 C         0.624993   1.263291   -1.502357 C.3        1 UNL1     0.0091
     42 C         1.599946   1.113086   -3.049066 C.3        1 UNL1     0.0661
     43 C         0.737119   -2.970003   -10.704998 C.2        1 UNL1     0.2131
     44 O         0.560073   -3.70549   -11.659174 O.2        1 UNL1     -0.2851
     45 O         -1.652592   -2.364911   -12.042169 O.3        1 UNL1     -0.5056
     46 O         -0.565075   -0.207572   -6.005591 O.2        1 UNL1     -0.2836
     47 C         2.167012   3.131632   -4.69883 C.3        1 UNL1     -0.0566
     48 O         2.869942   1.55868   -2.426433 O.3        1 UNL1     -0.3909
     49 C         0.654028   -0.090796   -0.829231 C.3        1 UNL1     -0.0577
     50 O         -1.508416   2.297792   -2.44732 O.3        1 UNL1     -0.3910
     51 O         -4.098132   1.178193   -2.041473 O.3        1 UNL1     -0.3753
     52 C         -1.617568   -1.640346   -2.123398 C.3        1 UNL1     -0.0564
     53 O         -1.795631   -0.865155   1.051464 O.3        1 UNL1     -0.4608
     54 C         -0.833722   -0.425435   1.922847 C.2        1 UNL1     0.3042
     55 O         0.376024   -0.644063   1.872303 O.2        1 UNL1     -0.2512
     56 C         -1.367761   0.464006   3.009314 C.3        1 UNL1     0.0332
     57 C         -3.328308   2.369735   0.087372 C.3        1 UNL1     -0.0567
     58 C         -3.423142   -1.841184   -6.146451 C.3        1 UNL1     0.0210
     59 C         -5.439422   1.329207   -1.578868 C.3        1 UNL1     0.0372
     60 C         -3.285114   -0.123229   -3.790228 C.2        1 UNL1     -0.0208
     61 C         -3.297235   0.864199   -4.686656 C.2        1 UNL1     0.0882
     62 H         1.021197   1.37052   -5.111032 H        1 UNL1     0.0365
     63 H         1.670973   0.858786   -6.978155 H        1 UNL1     0.0576
     64 H         4.74945   0.820792   -7.113468 H        1 UNL1     0.0615
     65 H         2.520846   0.072583   -9.170496 H        1 UNL1     0.0622
     66 H         -4.635843   -0.764731   -2.346571 H        1 UNL1     0.0645
     67 H         -3.310798   -1.712479   -0.987808 H        1 UNL1     0.0362
     68 H         -3.45691   -0.030296   0.413937 H        1 UNL1     0.0741
     69 H         -1.549002   1.759071   0.843405 H        1 UNL1     0.0359
     70 H         -0.610178   2.965464   -0.788384 H        1 UNL1     0.0600
     71 H         1.2562   1.860653   -0.815556 H        1 UNL1     0.0348
     72 H         0.881723   1.927843   -3.221237 H        1 UNL1     0.0602
     73 H         -3.035439   -1.110261   -4.091355 H        1 UNL1     0.0628
     74 H         -3.485016   1.911558   -4.447881 H        1 UNL1     0.1022
     75 H         6.421353   -0.18601   -10.389932 H        1 UNL1     0.0279
     76 H         6.232708   -1.807387   -9.852484 H        1 UNL1     0.0279
     77 H         5.753296   -1.290242   -11.519224 H        1 UNL1     0.0279
     78 H         3.972066   -3.156932   -10.168966 H        1 UNL1     0.1553
     79 H         4.127178   -2.896555   -8.210812 H        1 UNL1     0.1484
     80 H         2.270203   -3.906274   -5.053027 H        1 UNL1     0.0317
     81 H         1.770442   -4.42503   -6.656478 H        1 UNL1     0.0317
     82 H         4.156468   -4.760021   -7.355307 H        1 UNL1     0.0428
     83 H         3.72863   -5.695195   -5.939642 H        1 UNL1     0.0428
     84 H         5.86623   -2.079922   -5.258758 H        1 UNL1     0.0428
     85 H         5.543456   -2.482501   -6.90887 H        1 UNL1     0.0428
     86 H         4.032167   -0.812227   -5.836003 H        1 UNL1     0.0317
     87 H         3.505214   -1.90781   -4.642533 H        1 UNL1     0.0317
     88 H         6.400175   -5.171276   -6.394574 H        1 UNL1     0.0429
     89 H         6.97524   -4.170271   -5.059088 H        1 UNL1     0.0429
     90 H         5.618878   -6.854131   -5.05576 H        1 UNL1     0.0308
     91 H         7.610578   -5.408316   -3.228357 H        1 UNL1     0.0233
     92 H         6.920876   -7.004334   -2.837802 H        1 UNL1     0.0233
     93 H         7.926551   -6.801059   -4.256216 H        1 UNL1     0.0233
     94 H         4.75996   -6.319538   -2.658794 H        1 UNL1     0.0233
     95 H         4.714736   -4.648696   -3.24238 H        1 UNL1     0.0233
     96 H         3.760839   -5.903644   -4.066503 H        1 UNL1     0.0233
     97 H         -4.759544   -1.743871   -9.991042 H        1 UNL1     0.0280
     98 H         -4.376672   -0.259359   -10.819789 H        1 UNL1     0.0280
     99 H         -4.075554   -1.828005   -11.625028 H        1 UNL1     0.0280
     100 H         -0.936791   -2.092008   -12.588772 H        1 UNL1     0.2922
     101 H         1.177652   3.580497   -4.784519 H        1 UNL1     0.0236
     102 H         2.873604   3.560601   -5.408546 H        1 UNL1     0.0236
     103 H         2.534246   3.450547   -3.70907 H        1 UNL1     0.0236
     104 H         2.713956   1.641915   -1.465334 H        1 UNL1     0.2098
     105 H         0.294053   -0.908213   -1.448955 H        1 UNL1     0.0234
     106 H         1.609537   -0.353295   -0.375333 H        1 UNL1     0.0234
     107 H         0.0   0.0   0.0 H        1 UNL1     0.0234
     108 H         -1.778602   3.235279   -2.403886 H        1 UNL1     0.2098
     109 H         -2.027314   -2.43529   -2.762057 H        1 UNL1     0.0234
     110 H         -0.960785   -0.995397   -2.717047 H        1 UNL1     0.0234
     111 H         -0.936071   -2.142638   -1.423962 H        1 UNL1     0.0234
     112 H         -0.548898   0.795507   3.655004 H        1 UNL1     0.0342
     113 H         -1.91837   1.313999   2.609082 H        1 UNL1     0.0342
     114 H         -2.063702   -0.124216   3.623176 H        1 UNL1     0.0342
     115 H         -3.119947   3.303661   0.627332 H        1 UNL1     0.0234
     116 H         -3.817905   2.635549   -0.851609 H        1 UNL1     0.0234
     117 H         -4.083218   1.906721   0.745909 H        1 UNL1     0.0234
     118 H         -4.196585   -1.710505   -5.36946 H        1 UNL1     0.0309
     119 H         -3.810852   -2.499146   -6.930651 H        1 UNL1     0.0309
     120 H         -2.641687   -2.41076   -5.631653 H        1 UNL1     0.0309
     121 H         -5.750208   2.350671   -1.796537 H        1 UNL1     0.0524
     122 H         -6.139169   0.651925   -2.096246 H        1 UNL1     0.0524
     123 H         -5.491854   1.141117   -0.51024 H        1 UNL1     0.0524
@<TRIPOS>BOND
     1     1     2    1
     2     1    42    1
     3     2     3    2
     4     3     4    1
     5     4     5    2
     6     5     7    1
     7     6    75    1
     8     6    76    1
     9     6    77    1
    10     7     9   am
    11     9    10    1
    12    10    11    2
    13    10    43    1
    14    11    14    1
    15    11    15    1
    16    12    13   ar
    17    12    27   ar
    18    12    43    1
    19    13    14    1
    20    13    30   ar
    21    14    17    2
    22    15    16    1
    23    16    17    1
    24    16    18    1
    25    16    22    1
    26    18    19    1
    27    19    20    1
    28    20    21    1
    29    21    22    1
    30    23    24    1
    31    23    88    1
    32    23    89    1
    33    24    25    1
    34    24    26    1
    35    24    90    1
    36    25    91    1
    37    25    92    1
    38    25    93    1
    39    26    94    1
    40    26    95    1
    41    26    96    1
    42    27    28   ar
    43    28    29   ar
    44    29    30   ar
    45    29    31    1
    46    30    33    1
    47    31    32    1
    48    32    33    1
    49    32    35    1
    50    34    97    1
    51    34    98    1
    52    34    99    1
    53    35    61    1
    54    36    37    1
    55    36    60    1
    56    37    38    1
    57    38    39    1
    58    39    40    1
    59    40    41    1
    60    41    42    1
    61    45   100    1
    62    47   101    1
    63    47   102    1
    64    47   103    1
    65    48   104    1
    66    49   105    1
    67    49   106    1
    68    49   107    1
    69    50   108    1
    70    51    59    1
    71    52   109    1
    72    52   110    1
    73    52   111    1
    74    53    54    1
    75    54    55    2
    76    54    56    1
    77    56   112    1
    78    56   113    1
    79    56   114    1
    80    57   115    1
    81    57   116    1
    82    57   117    1
    83    58   118    1
    84    58   119    1
    85    58   120    1
    86    59   121    1
    87    59   122    1
    88    59   123    1
    89    60    61    2
    90     1    47    1
    91     1    62    1
    92     2    63    1
    93     3    64    1
    94     4    65    1
    95     5     6    1
    96     7     8    2
    97     9    78    1
    98    15    79    1
    99    18    80    1
   100    18    81    1
   101    19    82    1
   102    19    83    1
   103    20    23    1
   104    21    84    1
   105    21    85    1
   106    22    86    1
   107    22    87    1
   108    27    45    1
   109    28    34    1
   110    32    58    1
   111    33    46    2
   112    36    51    1
   113    36    66    1
   114    37    52    1
   115    37    67    1
   116    38    53    1
   117    38    68    1
   118    42    48    1
   119    42    72    1
   120    43    44    2
   121    60    73    1
   122    61    74    1
   123    39    69    1
   124    39    57    1
   125    40    70    1
   126    40    50    1
   127    41    71    1
   128    41    49    1
