@<TRIPOS>MOLECULE
*****
 123 128 0 0 0
SMALL
GASTEIGER

@<TRIPOS>ATOM
     1 C         4.898623   2.328263   0.755575 C.3        1 UNL1     0.0009
     2 C         6.269772   3.293854   -0.034754 C.2        1 UNL1     -0.0787
     3 C         7.597641   3.349932   -0.608919 C.2        1 UNL1     -0.0649
     4 C         8.351047   4.665928   -1.36184 C.2        1 UNL1     -0.0542
     5 C         9.386667   5.062227   -2.243609 C.2        1 UNL1     0.0115
     6 C         10.648768   4.567728   -3.002486 C.3        1 UNL1     -0.0348
     7 C         9.322806   6.520692   -2.911284 C.2        1 UNL1     0.2441
     8 O         9.997974   7.462323   -2.518849 O.2        1 UNL1     -0.2702
     9 N         8.637603   6.577646   -4.137418 N.am        1 UNL1     -0.2772
     10 C         7.295001   6.793823   -3.927635 C.2        1 UNL1     0.1049
     11 C         6.570379   5.725908   -3.647098 C.2        1 UNL1     0.0801
     12 C         5.69208   8.256011   -2.682651 C.ar        1 UNL1     0.0753
     13 C         5.063243   7.051067   -2.234005 C.ar        1 UNL1     0.0305
     14 C         5.402776   5.751121   -2.808382 C.2        1 UNL1     0.0924
     15 N         6.883709   4.421848   -3.735311 N.pl3        1 UNL1     -0.3170
     16 C         5.687842   3.664227   -3.478085 C.3        1 UNL1     0.1275
     17 N         4.858613   4.557665   -2.588213 N.2        1 UNL1     -0.2557
     18 C         4.928037   3.557099   -4.796767 C.3        1 UNL1     0.0016
     19 C         5.848163   2.942898   -5.839703 C.3        1 UNL1     0.0026
     20 N         6.274729   1.631037   -5.372703 N.3        1 UNL1     -0.3018
     21 C         6.961638   1.624556   -4.079458 C.3        1 UNL1     0.0026
     22 C         6.017606   2.241519   -3.045991 C.3        1 UNL1     0.0016
     23 C         6.905233   0.84039   -6.410964 C.3        1 UNL1     0.0012
     24 C         5.86813   0.396389   -7.454534 C.3        1 UNL1     -0.0339
     25 C         6.200719   -0.993404   -8.021911 C.3        1 UNL1     -0.0615
     26 C         4.47416   0.435571   -6.852792 C.3        1 UNL1     -0.0615
     27 C         5.278641   9.502216   -2.21772 C.ar        1 UNL1     0.1347
     28 C         4.225274   9.671535   -1.336926 C.ar        1 UNL1     0.0342
     29 C         3.653206   8.468595   -0.871268 C.ar        1 UNL1     0.1435
     30 C         4.080741   7.211533   -1.300488 C.ar        1 UNL1     0.0774
     31 O         2.547756   8.468202   -0.094746 O.3        1 UNL1     -0.4436
     32 C         2.012545   7.142652   -0.226419 C.3        1 UNL1     0.3143
     33 C         3.187114   6.280785   -0.643293 C.2        1 UNL1     0.2504
     34 C         3.566278   10.977798   -0.991237 C.3        1 UNL1     -0.0327
     35 O         1.620887   6.70948   1.082099 O.2        1 UNL1     -0.4528
     36 C         -1.292257   4.332101   0.562722 C.3        1 UNL1     0.0854
     37 C         -1.357946   3.00875   -0.292818 C.3        1 UNL1     0.0236
     38 C         -1.836556   1.706779   0.511886 C.3        1 UNL1     0.1131
     39 C         -1.140869   1.330713   1.881872 C.3        1 UNL1     0.0200
     40 C         0.517378   1.41897   2.03957 C.3        1 UNL1     0.0661
     41 C         1.653965   0.747808   0.974055 C.3        1 UNL1     0.0091
     42 C         3.332498   1.322759   0.507835 C.3        1 UNL1     0.0661
     43 C         6.739702   8.140631   -3.727368 C.2        1 UNL1     0.2131
     44 O         7.064394   9.05812   -4.459165 O.2        1 UNL1     -0.2851
     45 O         5.973465   10.622292   -2.669482 O.3        1 UNL1     -0.5056
     46 O         3.357167   5.096862   -0.455507 O.2        1 UNL1     -0.2836
     47 C         5.2452   2.011951   2.235377 C.3        1 UNL1     -0.0566
     48 O         3.961726   -0.008316   0.68512 O.3        1 UNL1     -0.3909
     49 C         0.950544   0.355512   -0.3061 C.3        1 UNL1     -0.0577
     50 O         0.916561   2.722193   2.413715 O.3        1 UNL1     -0.3910
     51 O         -1.489178   4.179061   1.950249 O.3        1 UNL1     -0.3753
     52 C         -0.221188   2.95204   -1.364972 C.3        1 UNL1     -0.0564
     53 O         -2.225964   0.561328   -0.376162 O.3        1 UNL1     -0.4608
     54 C         -1.984358   -0.762662   -0.11808 C.2        1 UNL1     0.3042
     55 O         -1.109879   -1.472618   -0.613143 O.2        1 UNL1     -0.2512
     56 C         -2.883527   -1.343796   0.935719 C.3        1 UNL1     0.0332
     57 C         -2.035021   1.939642   3.059952 C.3        1 UNL1     -0.0567
     58 C         0.994817   7.195401   -1.389595 C.3        1 UNL1     0.0210
     59 C         -0.547959   4.871388   2.769186 C.3        1 UNL1     0.0372
     60 C         -0.048035   5.130647   0.391264 C.2        1 UNL1     -0.0208
     61 C         0.732302   5.720599   1.297782 C.2        1 UNL1     0.0882
     62 H         4.28826   3.23935   0.764977 H        1 UNL1     0.0365
     63 H         5.855821   4.303642   0.003226 H        1 UNL1     0.0576
     64 H         8.197223   2.448459   -0.75368 H        1 UNL1     0.0615
     65 H         7.720336   5.517087   -1.091257 H        1 UNL1     0.0622
     66 H         -2.10724   4.955858   0.169306 H        1 UNL1     0.0645
     67 H         -2.211283   3.171865   -0.973824 H        1 UNL1     0.0362
     68 H         -2.857063   2.020682   0.779379 H        1 UNL1     0.0741
     69 H         -1.345011   0.291367   2.102087 H        1 UNL1     0.0359
     70 H         0.654222   0.813906   2.956211 H        1 UNL1     0.0600
     71 H         1.805174   -0.240758   1.450322 H        1 UNL1     0.0348
     72 H         3.091015   1.82773   1.454411 H        1 UNL1     0.0602
     73 H         0.116201   5.30355   -0.643327 H        1 UNL1     0.0628
     74 H         0.666651   5.549602   2.372811 H        1 UNL1     0.1022
     75 H         11.315305   3.988441   -2.318973 H        1 UNL1     0.0279
     76 H         10.481479   3.866162   -3.816666 H        1 UNL1     0.0279
     77 H         11.312174   5.390798   -3.306048 H        1 UNL1     0.0279
     78 H         8.732389   5.688549   -4.623834 H        1 UNL1     0.1553
     79 H         7.643672   4.067681   -4.286633 H        1 UNL1     0.1484
     80 H         4.03099   2.944987   -4.643821 H        1 UNL1     0.0317
     81 H         4.582643   4.541484   -5.130441 H        1 UNL1     0.0317
     82 H         6.71334   3.588696   -6.050239 H        1 UNL1     0.0428
     83 H         5.287101   2.877361   -6.772422 H        1 UNL1     0.0428
     84 H         7.200106   0.620696   -3.714479 H        1 UNL1     0.0428
     85 H         7.936892   2.127972   -4.132077 H        1 UNL1     0.0428
     86 H         6.496603   2.099374   -2.09502 H        1 UNL1     0.0317
     87 H         5.10577   1.637467   -2.963685 H        1 UNL1     0.0317
     88 H         7.656077   1.467455   -6.909277 H        1 UNL1     0.0429
     89 H         7.43604   -0.022366   -5.988272 H        1 UNL1     0.0429
     90 H         5.85822   1.117496   -8.28044 H        1 UNL1     0.0308
     91 H         6.459054   -1.696996   -7.22484 H        1 UNL1     0.0233
     92 H         5.356868   -1.39034   -8.591091 H        1 UNL1     0.0233
     93 H         7.051732   -0.96951   -8.713316 H        1 UNL1     0.0233
     94 H         3.801245   -0.220373   -7.415605 H        1 UNL1     0.0233
     95 H         4.503513   0.081096   -5.81865 H        1 UNL1     0.0233
     96 H         4.061604   1.448268   -6.867243 H        1 UNL1     0.0233
     97 H         4.191418   11.828998   -1.243997 H        1 UNL1     0.0280
     98 H         2.624967   11.123637   -1.537059 H        1 UNL1     0.0280
     99 H         3.358056   11.011153   0.090718 H        1 UNL1     0.0280
     100 H         6.909818   10.555077   -2.603551 H        1 UNL1     0.2922
     101 H         4.670149   2.661802   2.894669 H        1 UNL1     0.0236
     102 H         6.313329   2.058711   2.44489 H        1 UNL1     0.0236
     103 H         4.947315   0.989268   2.520994 H        1 UNL1     0.0236
     104 H         4.408697   -0.009885   1.554134 H        1 UNL1     0.2098
     105 H         0.790876   1.176515   -1.000557 H        1 UNL1     0.0234
     106 H         1.389329   -0.497321   -0.823856 H        1 UNL1     0.0234
     107 H         0.0   -0.0   0.0 H        1 UNL1     0.0234
     108 H         0.797905   2.795664   3.380302 H        1 UNL1     0.2098
     109 H         -0.283132   3.783179   -2.08127 H        1 UNL1     0.0234
     110 H         0.782264   2.919765   -0.927038 H        1 UNL1     0.0234
     111 H         -0.278343   2.035622   -1.967349 H        1 UNL1     0.0234
     112 H         -2.283096   -1.737644   1.761378 H        1 UNL1     0.0342
     113 H         -3.614599   -0.620817   1.294436 H        1 UNL1     0.0342
     114 H         -3.435857   -2.182921   0.490786 H        1 UNL1     0.0342
     115 H         -3.097372   1.987004   2.783626 H        1 UNL1     0.0234
     116 H         -1.964575   1.389597   4.00045 H        1 UNL1     0.0234
     117 H         -1.821882   3.00192   3.269902 H        1 UNL1     0.0234
     118 H         1.431083   7.637355   -2.302478 H        1 UNL1     0.0309
     119 H         0.569906   6.216519   -1.633403 H        1 UNL1     0.0309
     120 H         0.143523   7.850295   -1.173914 H        1 UNL1     0.0309
     121 H         -0.491387   4.346437   3.722382 H        1 UNL1     0.0524
     122 H         0.464256   4.875065   2.331643 H        1 UNL1     0.0524
     123 H         -0.868501   5.897598   2.924878 H        1 UNL1     0.0524
@<TRIPOS>BOND
     1     1     2    1
     2     1    42    1
     3     2     3    2
     4     3     4    1
     5     4     5    2
     6     5     7    1
     7     6    75    1
     8     6    76    1
     9     6    77    1
    10     7     9   am
    11     9    10    1
    12    10    11    2
    13    10    43    1
    14    11    14    1
    15    11    15    1
    16    12    13   ar
    17    12    27   ar
    18    12    43    1
    19    13    14    1
    20    13    30   ar
    21    14    17    2
    22    15    16    1
    23    16    17    1
    24    16    18    1
    25    16    22    1
    26    18    19    1
    27    19    20    1
    28    20    21    1
    29    21    22    1
    30    23    24    1
    31    23    88    1
    32    23    89    1
    33    24    25    1
    34    24    26    1
    35    24    90    1
    36    25    91    1
    37    25    92    1
    38    25    93    1
    39    26    94    1
    40    26    95    1
    41    26    96    1
    42    27    28   ar
    43    28    29   ar
    44    29    30   ar
    45    29    31    1
    46    30    33    1
    47    31    32    1
    48    32    33    1
    49    32    35    1
    50    34    97    1
    51    34    98    1
    52    34    99    1
    53    35    61    1
    54    36    37    1
    55    36    60    1
    56    37    38    1
    57    38    39    1
    58    39    40    1
    59    40    41    1
    60    41    42    1
    61    45   100    1
    62    47   101    1
    63    47   102    1
    64    47   103    1
    65    48   104    1
    66    49   105    1
    67    49   106    1
    68    49   107    1
    69    50   108    1
    70    51    59    1
    71    52   109    1
    72    52   110    1
    73    52   111    1
    74    53    54    1
    75    54    55    2
    76    54    56    1
    77    56   112    1
    78    56   113    1
    79    56   114    1
    80    57   115    1
    81    57   116    1
    82    57   117    1
    83    58   118    1
    84    58   119    1
    85    58   120    1
    86    59   121    1
    87    59   122    1
    88    59   123    1
    89    60    61    2
    90     1    47    1
    91     1    62    1
    92     2    63    1
    93     3    64    1
    94     4    65    1
    95     5     6    1
    96     7     8    2
    97     9    78    1
    98    15    79    1
    99    18    80    1
   100    18    81    1
   101    19    82    1
   102    19    83    1
   103    20    23    1
   104    21    84    1
   105    21    85    1
   106    22    86    1
   107    22    87    1
   108    27    45    1
   109    28    34    1
   110    32    58    1
   111    33    46    2
   112    36    51    1
   113    36    66    1
   114    37    52    1
   115    37    67    1
   116    38    53    1
   117    38    68    1
   118    42    48    1
   119    42    72    1
   120    43    44    2
   121    60    73    1
   122    61    74    1
   123    39    69    1
   124    39    57    1
   125    40    70    1
   126    40    50    1
   127    41    71    1
   128    41    49    1
