@<TRIPOS>MOLECULE
*****
 123 128 0 0 0
SMALL
GASTEIGER

@<TRIPOS>ATOM
     1 C         -1.987355   -0.91962   -3.710909 C.3        1 UNL1     0.0009
     2 C         -3.513158   -1.940598   -3.968915 C.2        1 UNL1     -0.0787
     3 C         -4.146227   -3.159851   -4.425743 C.2        1 UNL1     -0.0649
     4 C         -5.771502   -3.608775   -4.27308 C.2        1 UNL1     -0.0542
     5 C         -6.681943   -4.694178   -4.281656 C.2        1 UNL1     0.0115
     6 C         -6.829852   -6.207774   -4.598632 C.3        1 UNL1     -0.0348
     7 C         -8.137736   -4.492144   -3.636025 C.2        1 UNL1     0.2441
     8 O         -9.14426   -4.311756   -4.307513 O.2        1 UNL1     -0.2702
     9 N         -8.221719   -4.795639   -2.265993 N.am        1 UNL1     -0.2772
     10 C         -7.911755   -3.689102   -1.509144 C.2        1 UNL1     0.1049
     11 C         -6.626036   -3.459918   -1.312615 C.2        1 UNL1     0.0801
     12 C         -8.424403   -1.254173   -1.252928 C.ar        1 UNL1     0.0753
     13 C         -7.009783   -1.036332   -1.255064 C.ar        1 UNL1     0.0305
     14 C         -6.064588   -2.14592   -1.152729 C.2        1 UNL1     0.0924
     15 N         -5.561988   -4.245033   -1.553282 N.pl3        1 UNL1     -0.3170
     16 C         -4.402727   -3.595179   -1.001868 C.3        1 UNL1     0.1275
     17 N         -4.73943   -2.124532   -1.041261 N.2        1 UNL1     -0.2557
     18 C         -4.331395   -3.973889   0.474341 C.3        1 UNL1     0.0016
     19 C         -4.314381   -5.48999   0.587203 C.3        1 UNL1     0.0026
     20 N         -3.160984   -6.000344   -0.140976 N.3        1 UNL1     -0.3018
     21 C         -3.109042   -5.635136   -1.558119 C.3        1 UNL1     0.0026
     22 C         -3.122425   -4.108155   -1.647802 C.3        1 UNL1     0.0016
     23 C         -2.882216   -7.392842   0.148643 C.3        1 UNL1     0.0012
     24 C         -2.398417   -7.555101   1.598252 C.3        1 UNL1     -0.0339
     25 C         -1.655491   -8.886428   1.797473 C.3        1 UNL1     -0.0615
     26 C         -1.536678   -6.369191   1.995497 C.3        1 UNL1     -0.0615
     27 C         -9.318986   -0.186812   -1.228836 C.ar        1 UNL1     0.1347
     28 C         -8.919248   1.136165   -1.165675 C.ar        1 UNL1     0.0342
     29 C         -7.522265   1.328121   -1.21816 C.ar        1 UNL1     0.1435
     30 C         -6.61482   0.269788   -1.278927 C.ar        1 UNL1     0.0774
     31 O         -6.972371   2.551312   -1.055588 O.3        1 UNL1     -0.4436
     32 C         -5.606423   2.290406   -0.699235 C.3        1 UNL1     0.3143
     33 C         -5.314078   0.904768   -1.238452 C.2        1 UNL1     0.2504
     34 C         -9.810274   2.31401   -0.884864 C.3        1 UNL1     -0.0327
     35 O         -4.790595   3.206811   -1.439423 O.2        1 UNL1     -0.4528
     36 C         -1.730983   3.848996   0.713357 C.3        1 UNL1     0.0854
     37 C         -0.686438   2.819071   1.292754 C.3        1 UNL1     0.0236
     38 C         0.842844   3.125015   0.919336 C.3        1 UNL1     0.1131
     39 C         1.246066   3.38519   -0.587976 C.3        1 UNL1     0.0200
     40 C         0.629715   2.425504   -1.805167 C.3        1 UNL1     0.0661
     41 C         0.619402   0.729291   -1.824301 C.3        1 UNL1     0.0091
     42 C         -0.584582   -0.445235   -2.556635 C.3        1 UNL1     0.0661
     43 C         -8.907199   -2.655884   -1.186801 C.2        1 UNL1     0.2131
     44 O         -10.016493   -2.967806   -0.793214 O.2        1 UNL1     -0.2851
     45 O         -10.679462   -0.484195   -1.274743 O.3        1 UNL1     -0.5056
     46 O         -4.250263   0.437698   -1.579036 O.2        1 UNL1     -0.2836
     47 C         -1.494709   -0.335193   -5.062104 C.3        1 UNL1     -0.0566
     48 O         0.45346   -1.281159   -3.206879 O.3        1 UNL1     -0.3909
     49 C         0.940205   0.223634   -0.435456 C.3        1 UNL1     -0.0577
     50 O         -0.616159   2.921329   -2.25202 O.3        1 UNL1     -0.3910
     51 O         -1.220723   4.799139   -0.19455 O.3        1 UNL1     -0.3753
     52 C         -1.259454   1.364554   1.324068 C.3        1 UNL1     -0.0564
     53 O         1.829119   2.359473   1.752122 O.3        1 UNL1     -0.4608
     54 C         3.035369   1.878572   1.314373 C.2        1 UNL1     0.3042
     55 O         3.252859   1.222234   0.296651 O.2        1 UNL1     -0.2512
     56 C         4.192978   2.275327   2.185716 C.3        1 UNL1     0.0332
     57 C         1.254426   4.967869   -0.818691 C.3        1 UNL1     -0.0567
     58 C         -5.558497   2.244834   0.845808 C.3        1 UNL1     0.0210
     59 C         -1.742091   6.118053   -0.038009 C.3        1 UNL1     0.0372
     60 C         -2.925531   3.238073   0.069161 C.2        1 UNL1     -0.0208
     61 C         -3.534838   3.534735   -1.079526 C.2        1 UNL1     0.0882
     62 H         -2.607562   -0.145734   -3.242768 H        1 UNL1     0.0365
     63 H         -4.284806   -1.23876   -3.645724 H        1 UNL1     0.0576
     64 H         -3.560633   -4.008747   -4.78569 H        1 UNL1     0.0615
     65 H         -6.272985   -2.679542   -3.98931 H        1 UNL1     0.0622
     66 H         -2.10631   4.387107   1.595181 H        1 UNL1     0.0645
     67 H         -0.690617   3.015394   2.379032 H        1 UNL1     0.0362
     68 H         0.9654   4.09461   1.425683 H        1 UNL1     0.0741
     69 H         2.313571   3.243745   -0.692063 H        1 UNL1     0.0359
     70 H         1.335308   2.675112   -2.620578 H        1 UNL1     0.0600
     71 H         1.574222   0.53613   -2.351524 H        1 UNL1     0.0348
     72 H         -0.7562   0.517711   -3.059227 H        1 UNL1     0.0602
     73 H         -3.36568   2.541656   0.738878 H        1 UNL1     0.0628
     74 H         -3.121503   4.19249   -1.844869 H        1 UNL1     0.1022
     75 H         -7.583108   -6.367125   -5.407486 H        1 UNL1     0.0279
     76 H         -5.949844   -6.708452   -4.996096 H        1 UNL1     0.0279
     77 H         -7.27896   -6.77399   -3.769535 H        1 UNL1     0.0279
     78 H         -7.548418   -5.523207   -2.034933 H        1 UNL1     0.1553
     79 H         -5.620122   -5.238962   -1.678419 H        1 UNL1     0.1484
     80 H         -3.430531   -3.529369   0.914355 H        1 UNL1     0.0317
     81 H         -5.184515   -3.563577   1.025233 H        1 UNL1     0.0317
     82 H         -5.24762   -5.936556   0.213632 H        1 UNL1     0.0428
     83 H         -4.265146   -5.738143   1.647885 H        1 UNL1     0.0428
     84 H         -2.19454   -5.962741   -2.062275 H        1 UNL1     0.0428
     85 H         -3.915628   -6.111102   -2.132742 H        1 UNL1     0.0428
     86 H         -2.949779   -3.877364   -2.682653 H        1 UNL1     0.0317
     87 H         -2.239253   -3.695511   -1.144982 H        1 UNL1     0.0317
     88 H         -3.813869   -7.960435   0.025534 H        1 UNL1     0.0429
     89 H         -2.155476   -7.809864   -0.560381 H        1 UNL1     0.0429
     90 H         -3.264461   -7.534536   2.270382 H        1 UNL1     0.0308
     91 H         -1.39529   -9.043277   2.848566 H        1 UNL1     0.0233
     92 H         -2.264327   -9.724329   1.449838 H        1 UNL1     0.0233
     93 H         -0.719369   -8.931593   1.227849 H        1 UNL1     0.0233
     94 H         -1.344673   -6.386177   3.073774 H        1 UNL1     0.0233
     95 H         -0.57309   -6.418412   1.48068 H        1 UNL1     0.0233
     96 H         -2.022275   -5.421647   1.745847 H        1 UNL1     0.0233
     97 H         -10.121419   2.350806   0.154879 H        1 UNL1     0.0280
     98 H         -9.307292   3.269721   -1.082045 H        1 UNL1     0.0280
     99 H         -10.713395   2.251798   -1.51383 H        1 UNL1     0.0280
     100 H         -11.245158   0.235784   -1.057396 H        1 UNL1     0.2922
     101 H         -1.995348   -0.842539   -5.886493 H        1 UNL1     0.0236
     102 H         -0.410536   -0.354808   -5.167778 H        1 UNL1     0.0236
     103 H         -1.769266   0.726501   -5.178801 H        1 UNL1     0.0236
     104 H         0.645627   -0.886593   -4.080011 H        1 UNL1     0.2098
     105 H         1.54036   -0.682569   -0.414943 H        1 UNL1     0.0234
     106 H         1.362599   0.971743   0.235247 H        1 UNL1     0.0234
     107 H         0.0   0.0   0.0 H        1 UNL1     0.0234
     108 H         -0.818144   2.477956   -3.098418 H        1 UNL1     0.2098
     109 H         -0.489485   0.619287   1.567865 H        1 UNL1     0.0234
     110 H         -2.108459   1.251039   2.006745 H        1 UNL1     0.0234
     111 H         -1.662154   1.067073   0.346681 H        1 UNL1     0.0234
     112 H         4.920155   2.846879   1.601004 H        1 UNL1     0.0342
     113 H         3.872109   2.833824   3.063764 H        1 UNL1     0.0342
     114 H         4.688148   1.35938   2.536446 H        1 UNL1     0.0342
     115 H         2.221345   5.319258   -1.204413 H        1 UNL1     0.0234
     116 H         0.480143   5.320882   -1.502736 H        1 UNL1     0.0234
     117 H         1.173911   5.549116   0.115981 H        1 UNL1     0.0234
     118 H         -6.03756   1.335392   1.248821 H        1 UNL1     0.0309
     119 H         -4.542832   2.322229   1.246606 H        1 UNL1     0.0309
     120 H         -6.129686   3.057249   1.308226 H        1 UNL1     0.0309
     121 H         -2.828568   6.051101   -0.087411 H        1 UNL1     0.0524
     122 H         -1.480681   6.558056   0.938772 H        1 UNL1     0.0524
     123 H         -1.370166   6.765344   -0.827173 H        1 UNL1     0.0524
@<TRIPOS>BOND
     1     1     2    1
     2     1    42    1
     3     2     3    2
     4     3     4    1
     5     4     5    2
     6     5     7    1
     7     6    75    1
     8     6    76    1
     9     6    77    1
    10     7     9   am
    11     9    10    1
    12    10    11    2
    13    10    43    1
    14    11    14    1
    15    11    15    1
    16    12    13   ar
    17    12    27   ar
    18    12    43    1
    19    13    14    1
    20    13    30   ar
    21    14    17    2
    22    15    16    1
    23    16    17    1
    24    16    18    1
    25    16    22    1
    26    18    19    1
    27    19    20    1
    28    20    21    1
    29    21    22    1
    30    23    24    1
    31    23    88    1
    32    23    89    1
    33    24    25    1
    34    24    26    1
    35    24    90    1
    36    25    91    1
    37    25    92    1
    38    25    93    1
    39    26    94    1
    40    26    95    1
    41    26    96    1
    42    27    28   ar
    43    28    29   ar
    44    29    30   ar
    45    29    31    1
    46    30    33    1
    47    31    32    1
    48    32    33    1
    49    32    35    1
    50    34    97    1
    51    34    98    1
    52    34    99    1
    53    35    61    1
    54    36    37    1
    55    36    60    1
    56    37    38    1
    57    38    39    1
    58    39    40    1
    59    40    41    1
    60    41    42    1
    61    45   100    1
    62    47   101    1
    63    47   102    1
    64    47   103    1
    65    48   104    1
    66    49   105    1
    67    49   106    1
    68    49   107    1
    69    50   108    1
    70    51    59    1
    71    52   109    1
    72    52   110    1
    73    52   111    1
    74    53    54    1
    75    54    55    2
    76    54    56    1
    77    56   112    1
    78    56   113    1
    79    56   114    1
    80    57   115    1
    81    57   116    1
    82    57   117    1
    83    58   118    1
    84    58   119    1
    85    58   120    1
    86    59   121    1
    87    59   122    1
    88    59   123    1
    89    60    61    2
    90     1    47    1
    91     1    62    1
    92     2    63    1
    93     3    64    1
    94     4    65    1
    95     5     6    1
    96     7     8    2
    97     9    78    1
    98    15    79    1
    99    18    80    1
   100    18    81    1
   101    19    82    1
   102    19    83    1
   103    20    23    1
   104    21    84    1
   105    21    85    1
   106    22    86    1
   107    22    87    1
   108    27    45    1
   109    28    34    1
   110    32    58    1
   111    33    46    2
   112    36    51    1
   113    36    66    1
   114    37    52    1
   115    37    67    1
   116    38    53    1
   117    38    68    1
   118    42    48    1
   119    42    72    1
   120    43    44    2
   121    60    73    1
   122    61    74    1
   123    39    69    1
   124    39    57    1
   125    40    70    1
   126    40    50    1
   127    41    71    1
   128    41    49    1
