@<TRIPOS>MOLECULE
*****
 123 128 0 0 0
SMALL
GASTEIGER

@<TRIPOS>ATOM
     1 C         -1.529921   3.73363   -0.95505 C.3        1 UNL1     0.0009
     2 C         -3.304594   4.267485   -0.904358 C.2        1 UNL1     -0.0787
     3 C         -4.555384   4.535827   -1.58227 C.2        1 UNL1     -0.0649
     4 C         -6.046956   4.941832   -0.891814 C.2        1 UNL1     -0.0542
     5 C         -7.447962   4.98611   -1.097486 C.2        1 UNL1     0.0115
     6 C         -8.566465   4.83996   -2.165622 C.3        1 UNL1     -0.0348
     7 C         -8.416783   5.106865   0.176795 C.2        1 UNL1     0.2441
     8 O         -8.950926   6.155905   0.50956 O.2        1 UNL1     -0.2702
     9 N         -8.818141   3.878453   0.730028 N.am        1 UNL1     -0.2772
     10 C         -7.906015   3.453588   1.668559 C.2        1 UNL1     0.1049
     11 C         -6.843392   2.822219   1.203341 C.2        1 UNL1     0.0801
     12 C         -6.621461   4.217977   3.674292 C.ar        1 UNL1     0.0753
     13 C         -5.45492   3.698574   3.027755 C.ar        1 UNL1     0.0305
     14 C         -5.550186   2.866735   1.830249 C.2        1 UNL1     0.0924
     15 N         -6.596702   2.335595   -0.025019 N.pl3        1 UNL1     -0.3170
     16 C         -5.369287   1.587366   0.037101 C.3        1 UNL1     0.1275
     17 N         -4.594197   2.225789   1.163766 N.2        1 UNL1     -0.2557
     18 C         -5.721109   0.179933   0.509391 C.3        1 UNL1     0.0016
     19 C         -6.764252   -0.40212   -0.431171 C.3        1 UNL1     0.0026
     20 N         -6.217134   -0.423764   -1.780697 N.3        1 UNL1     -0.3018
     21 C         -5.791742   0.87765   -2.300055 C.3        1 UNL1     0.0026
     22 C         -4.740727   1.441871   -1.342498 C.3        1 UNL1     0.0016
     23 C         -7.004102   -1.226599   -2.695455 C.3        1 UNL1     0.0012
     24 C         -6.865417   -2.719455   -2.357958 C.3        1 UNL1     -0.0339
     25 C         -6.916785   -3.589503   -3.624621 C.3        1 UNL1     -0.0615
     26 C         -5.591021   -2.958357   -1.566997 C.3        1 UNL1     -0.0615
     27 C         -6.531103   4.907624   4.881081 C.ar        1 UNL1     0.1347
     28 C         -5.338567   5.104857   5.554141 C.ar        1 UNL1     0.0342
     29 C         -4.19768   4.627545   4.874645 C.ar        1 UNL1     0.1435
     30 C         -4.269048   3.966639   3.647726 C.ar        1 UNL1     0.0774
     31 O         -2.975595   4.645915   5.450124 O.3        1 UNL1     -0.4436
     32 C         -2.208368   3.690109   4.702681 C.3        1 UNL1     0.3143
     33 C         -2.901038   3.590147   3.358647 C.2        1 UNL1     0.2504
     34 C         -5.19426   5.609124   6.963037 C.3        1 UNL1     -0.0327
     35 O         -0.919655   4.270052   4.465749 O.2        1 UNL1     -0.4528
     36 C         1.513469   1.362043   4.288318 C.3        1 UNL1     0.0854
     37 C         1.498517   0.107351   3.332784 C.3        1 UNL1     0.0236
     38 C         2.843883   -0.115631   2.488974 C.3        1 UNL1     0.1131
     39 C         3.457955   1.082947   1.659158 C.3        1 UNL1     0.0200
     40 C         2.471225   2.074298   0.750299 C.3        1 UNL1     0.0661
     41 C         1.297076   1.559257   -0.360429 C.3        1 UNL1     0.0091
     42 C         -0.306511   2.314641   -0.832984 C.3        1 UNL1     0.0661
     43 C         -7.940359   3.920339   3.062588 C.2        1 UNL1     0.2131
     44 O         -8.990067   3.949074   3.679048 O.2        1 UNL1     -0.2851
     45 O         -7.70892   5.42027   5.420876 O.3        1 UNL1     -0.5056
     46 O         -2.42578   3.28921   2.286536 O.2        1 UNL1     -0.2836
     47 C         -0.643252   4.864257   -1.542828 C.3        1 UNL1     -0.0566
     48 O         -0.074065   2.171877   -2.29062 O.3        1 UNL1     -0.3909
     49 C         1.045427   0.082141   -0.154773 C.3        1 UNL1     -0.0577
     50 O         1.960818   3.131337   1.537621 O.3        1 UNL1     -0.3910
     51 O         2.622058   2.223025   4.157274 O.3        1 UNL1     -0.3753
     52 C         0.081779   -0.139663   2.718955 C.3        1 UNL1     -0.0564
     53 O         2.944811   -1.478478   1.868661 O.3        1 UNL1     -0.4608
     54 C         3.216736   -1.733733   0.550013 C.2        1 UNL1     0.3042
     55 O         2.419003   -2.063106   -0.326898 O.2        1 UNL1     -0.2512
     56 C         4.656545   -1.517404   0.180062 C.3        1 UNL1     0.0332
     57 C         4.576545   1.775882   2.568429 C.3        1 UNL1     -0.0567
     58 C         -2.354122   2.338978   5.44074 C.3        1 UNL1     0.0210
     59 C         3.553979   2.168773   5.236368 C.3        1 UNL1     0.0372
     60 C         0.29646   2.216357   4.223534 C.2        1 UNL1     -0.0208
     61 C         0.173737   3.543132   4.165636 C.2        1 UNL1     0.0882
     62 H         -1.487399   3.837725   0.135853 H        1 UNL1     0.0365
     63 H         -3.406545   4.535525   0.149317 H        1 UNL1     0.0576
     64 H         -4.684867   4.330272   -2.647206 H        1 UNL1     0.0615
     65 H         -5.794364   5.202595   0.139536 H        1 UNL1     0.0622
     66 H         1.529639   0.936989   5.301785 H        1 UNL1     0.0645
     67 H         1.526159   -0.754681   4.021766 H        1 UNL1     0.0362
     68 H         3.551154   -0.292087   3.313688 H        1 UNL1     0.0741
     69 H         4.137424   0.681748   0.919043 H        1 UNL1     0.0359
     70 H         3.228609   2.553758   0.101031 H        1 UNL1     0.0600
     71 H         1.900711   1.54934   -1.289129 H        1 UNL1     0.0348
     72 H         0.282008   3.118639   -0.367638 H        1 UNL1     0.0602
     73 H         -0.564022   1.609252   4.3586 H        1 UNL1     0.0628
     74 H         0.99753   4.230707   3.971102 H        1 UNL1     0.1022
     75 H         -8.312071   5.424942   -3.082198 H        1 UNL1     0.0279
     76 H         -8.729989   3.840852   -2.563256 H        1 UNL1     0.0279
     77 H         -9.510515   5.314702   -1.860516 H        1 UNL1     0.0279
     78 H         -8.857943   3.170951   -0.00068 H        1 UNL1     0.1553
     79 H         -7.311169   2.152615   -0.705452 H        1 UNL1     0.1484
     80 H         -4.81006   -0.430425   0.524122 H        1 UNL1     0.0317
     81 H         -6.10436   0.195836   1.535314 H        1 UNL1     0.0317
     82 H         -7.706368   0.16447   -0.395047 H        1 UNL1     0.0428
     83 H         -7.001988   -1.404977   -0.075068 H        1 UNL1     0.0428
     84 H         -5.311916   0.822433   -3.28216 H        1 UNL1     0.0428
     85 H         -6.643765   1.553476   -2.457006 H        1 UNL1     0.0428
     86 H         -4.358042   2.324688   -1.820173 H        1 UNL1     0.0317
     87 H         -3.870397   0.775298   -1.306418 H        1 UNL1     0.0317
     88 H         -8.057627   -0.939158   -2.582507 H        1 UNL1     0.0429
     89 H         -6.726958   -1.02913   -3.738993 H        1 UNL1     0.0429
     90 H         -7.688305   -3.016209   -1.696895 H        1 UNL1     0.0308
     91 H         -6.278308   -3.181198   -4.413757 H        1 UNL1     0.0233
     92 H         -6.603764   -4.612597   -3.403475 H        1 UNL1     0.0233
     93 H         -7.929048   -3.662533   -4.040344 H        1 UNL1     0.0233
     94 H         -5.282425   -4.005646   -1.655269 H        1 UNL1     0.0233
     95 H         -4.78395   -2.3347   -1.961522 H        1 UNL1     0.0233
     96 H         -5.729894   -2.727174   -0.507169 H        1 UNL1     0.0233
     97 H         -4.66934   4.901152   7.597439 H        1 UNL1     0.0280
     98 H         -4.617023   6.541692   7.01171 H        1 UNL1     0.0280
     99 H         -6.192522   5.786583   7.395559 H        1 UNL1     0.0280
     100 H         -8.236131   5.910945   4.815146 H        1 UNL1     0.2922
     101 H         -0.089169   5.351499   -0.740804 H        1 UNL1     0.0236
     102 H         -1.203121   5.578476   -2.145671 H        1 UNL1     0.0236
     103 H         0.132899   4.471726   -2.220841 H        1 UNL1     0.0236
     104 H         -0.827804   2.589238   -2.751769 H        1 UNL1     0.2098
     105 H         1.30555   -0.540674   -1.006975 H        1 UNL1     0.0234
     106 H         1.473611   -0.329854   0.758926 H        1 UNL1     0.0234
     107 H         0.0   0.0   0.0 H        1 UNL1     0.0234
     108 H         1.183542   3.492577   1.069523 H        1 UNL1     0.2098
     109 H         -0.677568   -0.332644   3.48958 H        1 UNL1     0.0234
     110 H         -0.254149   0.676019   2.069679 H        1 UNL1     0.0234
     111 H         0.072285   -1.021703   2.064844 H        1 UNL1     0.0234
     112 H         4.800965   -1.717386   -0.886004 H        1 UNL1     0.0342
     113 H         5.000407   -0.517409   0.440087 H        1 UNL1     0.0342
     114 H         5.267271   -2.236359   0.743339 H        1 UNL1     0.0342
     115 H         5.304587   1.045611   2.9477 H        1 UNL1     0.0234
     116 H         5.136056   2.563908   2.060481 H        1 UNL1     0.0234
     117 H         4.181449   2.192162   3.511059 H        1 UNL1     0.0234
     118 H         -1.4121   2.027336   5.924971 H        1 UNL1     0.0309
     119 H         -3.15622   2.340658   6.185615 H        1 UNL1     0.0309
     120 H         -2.574447   1.509632   4.75975 H        1 UNL1     0.0309
     121 H         4.068905   3.128278   5.275846 H        1 UNL1     0.0524
     122 H         3.058498   2.017625   6.209862 H        1 UNL1     0.0524
     123 H         4.268404   1.366293   5.076002 H        1 UNL1     0.0524
@<TRIPOS>BOND
     1     1     2    1
     2     1    42    1
     3     2     3    2
     4     3     4    1
     5     4     5    2
     6     5     7    1
     7     6    75    1
     8     6    76    1
     9     6    77    1
    10     7     9   am
    11     9    10    1
    12    10    11    2
    13    10    43    1
    14    11    14    1
    15    11    15    1
    16    12    13   ar
    17    12    27   ar
    18    12    43    1
    19    13    14    1
    20    13    30   ar
    21    14    17    2
    22    15    16    1
    23    16    17    1
    24    16    18    1
    25    16    22    1
    26    18    19    1
    27    19    20    1
    28    20    21    1
    29    21    22    1
    30    23    24    1
    31    23    88    1
    32    23    89    1
    33    24    25    1
    34    24    26    1
    35    24    90    1
    36    25    91    1
    37    25    92    1
    38    25    93    1
    39    26    94    1
    40    26    95    1
    41    26    96    1
    42    27    28   ar
    43    28    29   ar
    44    29    30   ar
    45    29    31    1
    46    30    33    1
    47    31    32    1
    48    32    33    1
    49    32    35    1
    50    34    97    1
    51    34    98    1
    52    34    99    1
    53    35    61    1
    54    36    37    1
    55    36    60    1
    56    37    38    1
    57    38    39    1
    58    39    40    1
    59    40    41    1
    60    41    42    1
    61    45   100    1
    62    47   101    1
    63    47   102    1
    64    47   103    1
    65    48   104    1
    66    49   105    1
    67    49   106    1
    68    49   107    1
    69    50   108    1
    70    51    59    1
    71    52   109    1
    72    52   110    1
    73    52   111    1
    74    53    54    1
    75    54    55    2
    76    54    56    1
    77    56   112    1
    78    56   113    1
    79    56   114    1
    80    57   115    1
    81    57   116    1
    82    57   117    1
    83    58   118    1
    84    58   119    1
    85    58   120    1
    86    59   121    1
    87    59   122    1
    88    59   123    1
    89    60    61    2
    90     1    47    1
    91     1    62    1
    92     2    63    1
    93     3    64    1
    94     4    65    1
    95     5     6    1
    96     7     8    2
    97     9    78    1
    98    15    79    1
    99    18    80    1
   100    18    81    1
   101    19    82    1
   102    19    83    1
   103    20    23    1
   104    21    84    1
   105    21    85    1
   106    22    86    1
   107    22    87    1
   108    27    45    1
   109    28    34    1
   110    32    58    1
   111    33    46    2
   112    36    51    1
   113    36    66    1
   114    37    52    1
   115    37    67    1
   116    38    53    1
   117    38    68    1
   118    42    48    1
   119    42    72    1
   120    43    44    2
   121    60    73    1
   122    61    74    1
   123    39    69    1
   124    39    57    1
   125    40    70    1
   126    40    50    1
   127    41    71    1
   128    41    49    1
