@<TRIPOS>MOLECULE
*****
 123 128 0 0 0
SMALL
GASTEIGER

@<TRIPOS>ATOM
     1 C         0.790159   -5.348639   0.882874 C.3        1 UNL1     0.0009
     2 C         0.592386   -7.061596   0.201918 C.2        1 UNL1     -0.0787
     3 C         -0.116455   -8.323342   0.162081 C.2        1 UNL1     -0.0649
     4 C         0.144949   -9.631273   -0.880676 C.2        1 UNL1     -0.0542
     5 C         -0.423158   -10.803274   -1.438122 C.2        1 UNL1     0.0115
     6 C         -1.626461   -11.781698   -1.34829 C.3        1 UNL1     -0.0348
     7 C         0.235498   -11.433019   -2.759706 C.2        1 UNL1     0.2441
     8 O         0.962988   -12.41626   -2.736887 O.2        1 UNL1     -0.2702
     9 N         -0.285729   -10.94139   -3.969158 N.am        1 UNL1     -0.2772
     10 C         0.397417   -9.813913   -4.363401 C.2        1 UNL1     0.1049
     11 C         0.012646   -8.677458   -3.811456 C.2        1 UNL1     0.0801
     12 C         2.705004   -8.91102   -4.705685 C.ar        1 UNL1     0.0753
     13 C         2.297582   -7.787496   -3.918088 C.ar        1 UNL1     0.0305
     14 C         0.898047   -7.57358   -3.556713 C.2        1 UNL1     0.0924
     15 N         -1.079029   -8.39924   -3.078401 N.pl3        1 UNL1     -0.3170
     16 C         -1.114714   -6.976643   -2.865807 C.3        1 UNL1     0.1275
     17 N         0.33153   -6.549343   -2.925108 N.2        1 UNL1     -0.2557
     18 C         -1.790466   -6.354241   -4.08387 C.3        1 UNL1     0.0016
     19 C         -3.156737   -6.996655   -4.263304 C.3        1 UNL1     0.0026
     20 N         -3.941279   -6.772094   -3.057031 N.3        1 UNL1     -0.3018
     21 C         -3.342163   -7.281792   -1.821864 C.3        1 UNL1     0.0026
     22 C         -1.972748   -6.61989   -1.659137 C.3        1 UNL1     0.0016
     23 C         -5.347022   -7.077656   -3.233562 C.3        1 UNL1     0.0012
     24 C         -6.131128   -5.809664   -3.606562 C.3        1 UNL1     -0.0339
     25 C         -6.6601   -5.87938   -5.048569 C.3        1 UNL1     -0.0615
     26 C         -7.253776   -5.579506   -2.609833 C.3        1 UNL1     -0.0615
     27 C         4.019175   -9.044069   -5.147695 C.ar        1 UNL1     0.1347
     28 C         5.001484   -8.101894   -4.899854 C.ar        1 UNL1     0.0342
     29 C         4.589384   -7.028807   -4.081428 C.ar        1 UNL1     0.1435
     30 C         3.285461   -6.900823   -3.601192 C.ar        1 UNL1     0.0774
     31 O         5.399143   -5.974559   -3.840893 O.3        1 UNL1     -0.4436
     32 C         4.514967   -4.929209   -3.409211 C.3        1 UNL1     0.3143
     33 C         3.28468   -5.6421   -2.885385 C.2        1 UNL1     0.2504
     34 C         6.357191   -8.05029   -5.547538 C.3        1 UNL1     -0.0327
     35 O         5.132597   -4.284696   -2.288324 O.2        1 UNL1     -0.4528
     36 C         3.946074   -0.680196   -2.376788 C.3        1 UNL1     0.0854
     37 C         2.473753   -0.11512   -2.354816 C.3        1 UNL1     0.0236
     38 C         2.173779   0.944336   -1.18892 C.3        1 UNL1     0.1131
     39 C         2.550527   0.593445   0.306809 C.3        1 UNL1     0.0200
     40 C         2.223893   -0.919962   0.927571 C.3        1 UNL1     0.0661
     41 C         0.738482   -1.733649   0.832287 C.3        1 UNL1     0.0091
     42 C         0.369294   -3.526707   0.713766 C.3        1 UNL1     0.0661
     43 C         1.661244   -9.88462   -5.111796 C.2        1 UNL1     0.2131
     44 O         1.773638   -10.63314   -6.065643 O.2        1 UNL1     -0.2851
     45 O         4.343745   -10.190183   -5.870548 O.3        1 UNL1     -0.5056
     46 O         2.49432   -5.265374   -2.049166 O.2        1 UNL1     -0.2836
     47 C         1.381566   -5.403461   2.317173 C.3        1 UNL1     -0.0566
     48 O         -0.66954   -3.498868   1.771673 O.3        1 UNL1     -0.3909
     49 C         -0.136369   -1.034883   -0.184499 C.3        1 UNL1     -0.0577
     50 O         3.28318   -1.814121   0.651683 O.3        1 UNL1     -0.3910
     51 O         4.758406   -0.325728   -1.280477 O.3        1 UNL1     -0.3753
     52 C         1.429093   -1.196374   -2.784379 C.3        1 UNL1     -0.0564
     53 O         0.905447   1.719965   -1.394005 O.3        1 UNL1     -0.4608
     54 C         0.036394   2.098971   -0.404546 C.2        1 UNL1     0.3042
     55 O         0.049412   3.147046   0.239821 O.2        1 UNL1     -0.2512
     56 C         -1.066781   1.108752   -0.161264 C.3        1 UNL1     0.0332
     57 C         3.989584   1.225689   0.602712 C.3        1 UNL1     -0.0567
     58 C         4.12798   -4.132372   -4.676815 C.3        1 UNL1     0.0210
     59 C         5.781647   0.624063   -1.574995 C.3        1 UNL1     0.0372
     60 C         4.050613   -2.157069   -2.528699 C.2        1 UNL1     -0.0208
     61 C         4.81296   -3.040671   -1.883083 C.2        1 UNL1     0.0882
     62 H         1.635703   -5.196008   0.201353 H        1 UNL1     0.0365
     63 H         1.469316   -7.125756   -0.445653 H        1 UNL1     0.0576
     64 H         -1.036252   -8.481338   0.729636 H        1 UNL1     0.0615
     65 H         1.115937   -9.413401   -1.333662 H        1 UNL1     0.0622
     66 H         4.392729   -0.251506   -3.284957 H        1 UNL1     0.0645
     67 H         2.418844   0.524981   -3.252489 H        1 UNL1     0.0362
     68 H         2.868716   1.745024   -1.484698 H        1 UNL1     0.0741
     69 H         1.995393   1.245693   0.967723 H        1 UNL1     0.0359
     70 H         2.316917   -0.706387   2.009603 H        1 UNL1     0.0600
     71 H         0.275002   -1.401724   1.782008 H        1 UNL1     0.0348
     72 H         1.396321   -3.453438   1.099983 H        1 UNL1     0.0602
     73 H         3.482349   -2.462524   -3.37192 H        1 UNL1     0.0628
     74 H         5.378753   -2.821247   -0.97701 H        1 UNL1     0.1022
     75 H         -2.344564   -11.597648   -2.183448 H        1 UNL1     0.0279
     76 H         -1.40102   -12.839669   -1.462056 H        1 UNL1     0.0279
     77 H         -2.262196   -11.59447   -0.470516 H        1 UNL1     0.0279
     78 H         -1.260762   -10.679286   -3.839971 H        1 UNL1     0.1553
     79 H         -1.903273   -8.97146   -3.067483 H        1 UNL1     0.1484
     80 H         -1.873896   -5.271303   -3.932045 H        1 UNL1     0.0317
     81 H         -1.183862   -6.498694   -4.984323 H        1 UNL1     0.0317
     82 H         -3.075426   -8.070253   -4.488446 H        1 UNL1     0.0428
     83 H         -3.620323   -6.539657   -5.138114 H        1 UNL1     0.0428
     84 H         -3.911828   -7.030439   -0.921801 H        1 UNL1     0.0428
     85 H         -3.297947   -8.379635   -1.811711 H        1 UNL1     0.0428
     86 H         -1.623978   -6.911592   -0.685865 H        1 UNL1     0.0317
     87 H         -2.090024   -5.532852   -1.571432 H        1 UNL1     0.0317
     88 H         -5.438977   -7.799835   -4.055326 H        1 UNL1     0.0429
     89 H         -5.767045   -7.553967   -2.338307 H        1 UNL1     0.0429
     90 H         -5.469729   -4.939557   -3.518933 H        1 UNL1     0.0308
     91 H         -6.824943   -4.879273   -5.460532 H        1 UNL1     0.0233
     92 H         -5.961464   -6.421021   -5.690551 H        1 UNL1     0.0233
     93 H         -7.61561   -6.413308   -5.11754 H        1 UNL1     0.0233
     94 H         -7.539332   -4.522057   -2.600105 H        1 UNL1     0.0233
     95 H         -8.133007   -6.163507   -2.895941 H        1 UNL1     0.0233
     96 H         -6.95387   -5.865787   -1.59787 H        1 UNL1     0.0233
     97 H         6.522193   -7.114604   -6.073367 H        1 UNL1     0.0280
     98 H         7.169757   -8.129916   -4.813608 H        1 UNL1     0.0280
     99 H         6.451515   -8.875343   -6.272442 H        1 UNL1     0.0280
     100 H         4.069281   -10.996405   -5.470176 H        1 UNL1     0.2922
     101 H         2.4045   -5.77737   2.279035 H        1 UNL1     0.0236
     102 H         0.764684   -5.970142   3.013818 H        1 UNL1     0.0236
     103 H         1.46671   -4.400895   2.768621 H        1 UNL1     0.0236
     104 H         -0.364672   -2.885136   2.468351 H        1 UNL1     0.2098
     105 H         0.136205   -1.227129   -1.219177 H        1 UNL1     0.0234
     106 H         -1.206842   -1.182394   -0.04218 H        1 UNL1     0.0234
     107 H         0.0   0.0   0.0 H        1 UNL1     0.0234
     108 H         2.953389   -2.716868   0.825042 H        1 UNL1     0.2098
     109 H         1.602547   -1.559197   -3.807113 H        1 UNL1     0.0234
     110 H         1.383008   -2.04753   -2.096518 H        1 UNL1     0.0234
     111 H         0.406759   -0.795417   -2.78062 H        1 UNL1     0.0234
     112 H         -1.034751   0.321841   -0.920928 H        1 UNL1     0.0342
     113 H         -1.023821   0.685912   0.841334 H        1 UNL1     0.0342
     114 H         -2.026934   1.633593   -0.260316 H        1 UNL1     0.0342
     115 H         4.085569   1.551314   1.647673 H        1 UNL1     0.0234
     116 H         4.822438   0.552266   0.390807 H        1 UNL1     0.0234
     117 H         4.172606   2.172857   0.066692 H        1 UNL1     0.0234
     118 H         4.573789   -3.122317   -4.683781 H        1 UNL1     0.0309
     119 H         4.39319   -4.647324   -5.605627 H        1 UNL1     0.0309
     120 H         3.052244   -3.934058   -4.736563 H        1 UNL1     0.0309
     121 H         5.561823   1.053154   -2.552193 H        1 UNL1     0.0524
     122 H         5.806229   1.451864   -0.846862 H        1 UNL1     0.0524
     123 H         6.752995   0.137872   -1.589023 H        1 UNL1     0.0524
@<TRIPOS>BOND
     1     1     2    1
     2     1    42    1
     3     2     3    2
     4     3     4    1
     5     4     5    2
     6     5     7    1
     7     6    75    1
     8     6    76    1
     9     6    77    1
    10     7     9   am
    11     9    10    1
    12    10    11    2
    13    10    43    1
    14    11    14    1
    15    11    15    1
    16    12    13   ar
    17    12    27   ar
    18    12    43    1
    19    13    14    1
    20    13    30   ar
    21    14    17    2
    22    15    16    1
    23    16    17    1
    24    16    18    1
    25    16    22    1
    26    18    19    1
    27    19    20    1
    28    20    21    1
    29    21    22    1
    30    23    24    1
    31    23    88    1
    32    23    89    1
    33    24    25    1
    34    24    26    1
    35    24    90    1
    36    25    91    1
    37    25    92    1
    38    25    93    1
    39    26    94    1
    40    26    95    1
    41    26    96    1
    42    27    28   ar
    43    28    29   ar
    44    29    30   ar
    45    29    31    1
    46    30    33    1
    47    31    32    1
    48    32    33    1
    49    32    35    1
    50    34    97    1
    51    34    98    1
    52    34    99    1
    53    35    61    1
    54    36    37    1
    55    36    60    1
    56    37    38    1
    57    38    39    1
    58    39    40    1
    59    40    41    1
    60    41    42    1
    61    45   100    1
    62    47   101    1
    63    47   102    1
    64    47   103    1
    65    48   104    1
    66    49   105    1
    67    49   106    1
    68    49   107    1
    69    50   108    1
    70    51    59    1
    71    52   109    1
    72    52   110    1
    73    52   111    1
    74    53    54    1
    75    54    55    2
    76    54    56    1
    77    56   112    1
    78    56   113    1
    79    56   114    1
    80    57   115    1
    81    57   116    1
    82    57   117    1
    83    58   118    1
    84    58   119    1
    85    58   120    1
    86    59   121    1
    87    59   122    1
    88    59   123    1
    89    60    61    2
    90     1    47    1
    91     1    62    1
    92     2    63    1
    93     3    64    1
    94     4    65    1
    95     5     6    1
    96     7     8    2
    97     9    78    1
    98    15    79    1
    99    18    80    1
   100    18    81    1
   101    19    82    1
   102    19    83    1
   103    20    23    1
   104    21    84    1
   105    21    85    1
   106    22    86    1
   107    22    87    1
   108    27    45    1
   109    28    34    1
   110    32    58    1
   111    33    46    2
   112    36    51    1
   113    36    66    1
   114    37    52    1
   115    37    67    1
   116    38    53    1
   117    38    68    1
   118    42    48    1
   119    42    72    1
   120    43    44    2
   121    60    73    1
   122    61    74    1
   123    39    69    1
   124    39    57    1
   125    40    70    1
   126    40    50    1
   127    41    71    1
   128    41    49    1
