@<TRIPOS>MOLECULE
*****
 123 128 0 0 0
SMALL
GASTEIGER

@<TRIPOS>ATOM
     1 C         5.167177   1.757259   0.459998 C.3        1 UNL1     0.0009
     2 C         6.597466   2.565443   -0.399157 C.2        1 UNL1     -0.0787
     3 C         7.875509   2.469135   -1.07249 C.2        1 UNL1     -0.0649
     4 C         8.746442   3.705459   -1.833631 C.2        1 UNL1     -0.0542
     5 C         9.76038   3.999484   -2.778384 C.2        1 UNL1     0.0115
     6 C         10.884405   3.375615   -3.650553 C.3        1 UNL1     -0.0348
     7 C         9.849707   5.482721   -3.385852 C.2        1 UNL1     0.2441
     8 O         10.6745   6.305802   -3.013322 O.2        1 UNL1     -0.2702
     9 N         9.092185   5.688147   -4.552091 N.am        1 UNL1     -0.2772
     10 C         7.810741   6.072848   -4.230799 C.2        1 UNL1     0.1049
     11 C         6.96828   5.100155   -3.933561 C.2        1 UNL1     0.0801
     12 C         6.518193   7.677803   -2.812782 C.ar        1 UNL1     0.0753
     13 C         5.763638   6.548792   -2.360466 C.ar        1 UNL1     0.0305
     14 C         5.878826   5.243099   -3.006182 C.2        1 UNL1     0.0924
     15 N         7.092094   3.771332   -4.093015 N.pl3        1 UNL1     -0.3170
     16 C         5.825099   3.170204   -3.771109 C.3        1 UNL1     0.1275
     17 N         5.193013   4.124689   -2.787672 N.2        1 UNL1     -0.2557
     18 C         4.964637   3.227542   -5.029687 C.3        1 UNL1     0.0016
     19 C         5.713878   2.544348   -6.162592 C.3        1 UNL1     0.0026
     20 N         5.98854   1.166793   -5.777974 N.3        1 UNL1     -0.3018
     21 C         6.759531   1.007981   -4.543178 C.3        1 UNL1     0.0026
     22 C         5.98637   1.697562   -3.417747 C.3        1 UNL1     0.0016
     23 C         6.427744   0.347659   -6.890072 C.3        1 UNL1     0.0012
     24 C         5.266868   0.096042   -7.865168 C.3        1 UNL1     -0.0339
     25 C         5.35319   1.018447   -9.092268 C.3        1 UNL1     -0.0615
     26 C         5.232894   -1.368061   -8.267695 C.3        1 UNL1     -0.0615
     27 C         6.314708   8.945318   -2.272304 C.ar        1 UNL1     0.1347
     28 C         5.360958   9.213593   -1.306675 C.ar        1 UNL1     0.0342
     29 C         4.663986   8.078145   -0.841754 C.ar        1 UNL1     0.1435
     30 C         4.882479   6.796329   -1.348142 C.ar        1 UNL1     0.0774
     31 O         3.627922   8.190277   0.017899 O.3        1 UNL1     -0.4436
     32 C         2.907399   6.956255   -0.119612 C.3        1 UNL1     0.3143
     33 C         3.919105   5.964632   -0.657523 C.2        1 UNL1     0.2504
     34 C         4.914553   10.579102   -0.863719 C.3        1 UNL1     -0.0327
     35 O         2.555328   6.519353   1.198877 O.2        1 UNL1     -0.4528
     36 C         -0.686906   4.581828   0.822045 C.3        1 UNL1     0.0854
     37 C         -0.995528   3.320494   -0.073115 C.3        1 UNL1     0.0236
     38 C         -1.589334   2.058712   0.718746 C.3        1 UNL1     0.1131
     39 C         -0.854965   1.529326   2.015944 C.3        1 UNL1     0.0200
     40 C         0.806676   1.38647   2.047234 C.3        1 UNL1     0.0661
     41 C         1.760289   0.618846   0.872931 C.3        1 UNL1     0.0091
     42 C         3.463892   0.98399   0.298639 C.3        1 UNL1     0.0661
     43 C         7.461859   7.471305   -3.939331 C.2        1 UNL1     0.2131
     44 O         7.855996   8.369816   -4.660491 O.2        1 UNL1     -0.2851
     45 O         7.122552   9.981599   -2.735929 O.3        1 UNL1     -0.5056
     46 O         3.937816   4.761163   -0.526501 O.2        1 UNL1     -0.2836
     47 C         5.572813   1.328844   1.895931 C.3        1 UNL1     -0.0566
     48 O         3.915211   -0.426366   0.378147 O.3        1 UNL1     -0.3909
     49 C         0.919088   0.384547   -0.361969 C.3        1 UNL1     -0.0577
     50 O         1.407246   2.605413   2.436099 O.3        1 UNL1     -0.3910
     51 O         -0.802376   4.392366   2.214238 O.3        1 UNL1     -0.3753
     52 C         0.042282   3.161363   -1.231812 C.3        1 UNL1     -0.0564
     53 O         -2.195626   1.018492   -0.177177 O.3        1 UNL1     -0.4608
     54 C         -2.394746   -0.296626   0.152587 C.2        1 UNL1     0.3042
     55 O         -1.812945   -1.278317   -0.307446 O.2        1 UNL1     -0.2512
     56 C         -3.409284   -0.496432   1.242314 C.3        1 UNL1     0.0332
     57 C         -1.569522   2.197534   3.281282 C.3        1 UNL1     -0.0567
     58 C         1.825353   7.199291   -1.197405 C.3        1 UNL1     0.0210
     59 C         -1.113045   5.571087   2.955836 C.3        1 UNL1     0.0372
     60 C         0.639673   5.212981   0.583309 C.2        1 UNL1     -0.0208
     61 C         1.557085   5.649943   1.447118 C.2        1 UNL1     0.0882
     62 H         4.690202   2.740691   0.549823 H        1 UNL1     0.0365
     63 H         6.330156   3.618844   -0.29257 H        1 UNL1     0.0576
     64 H         8.333391   1.502957   -1.295987 H        1 UNL1     0.0615
     65 H         8.259967   4.620175   -1.484175 H        1 UNL1     0.0622
     66 H         -1.434598   5.327063   0.516061 H        1 UNL1     0.0645
     67 H         -1.865212   3.628282   -0.679314 H        1 UNL1     0.0362
     68 H         -2.534987   2.49417   1.076011 H        1 UNL1     0.0741
     69 H         -1.183685   0.517755   2.21362 H        1 UNL1     0.0359
     70 H         0.924781   0.726587   2.927953 H        1 UNL1     0.0600
     71 H         1.808068   -0.402118   1.299904 H        1 UNL1     0.0348
     72 H         3.363084   1.472322   1.278784 H        1 UNL1     0.0602
     73 H         0.751051   5.410104   -0.453988 H        1 UNL1     0.0628
     74 H         1.546275   5.439576   2.517102 H        1 UNL1     0.1022
     75 H         10.912843   2.267028   -3.519173 H        1 UNL1     0.0279
     76 H         10.777597   3.481181   -4.727826 H        1 UNL1     0.0279
     77 H         11.891853   3.659849   -3.312973 H        1 UNL1     0.0279
     78 H         9.028447   4.817939   -5.07626 H        1 UNL1     0.1553
     79 H         7.754348   3.344222   -4.714248 H        1 UNL1     0.1484
     80 H         4.005325   2.735123   -4.829661 H        1 UNL1     0.0317
     81 H         4.734744   4.263847   -5.299638 H        1 UNL1     0.0317
     82 H         6.642186   3.077069   -6.416298 H        1 UNL1     0.0428
     83 H         5.083316   2.598213   -7.05059 H        1 UNL1     0.0428
     84 H         6.883375   -0.034682   -4.234424 H        1 UNL1     0.0428
     85 H         7.78839   1.377637   -4.653266 H        1 UNL1     0.0428
     86 H         6.508617   1.448308   -2.512696 H        1 UNL1     0.0317
     87 H         5.00846   1.218391   -3.286659 H        1 UNL1     0.0317
     88 H         7.219766   0.890572   -7.422276 H        1 UNL1     0.0429
     89 H         6.863951   -0.59731   -6.541457 H        1 UNL1     0.0429
     90 H         4.317719   0.287318   -7.350634 H        1 UNL1     0.0308
     91 H         6.305604   0.894959   -9.616445 H        1 UNL1     0.0233
     92 H         4.533396   0.816617   -9.785675 H        1 UNL1     0.0233
     93 H         5.272815   2.078853   -8.824101 H        1 UNL1     0.0233
     94 H         4.551326   -1.511634   -9.113087 H        1 UNL1     0.0233
     95 H         6.229517   -1.693146   -8.579181 H        1 UNL1     0.0233
     96 H         4.89715   -2.001312   -7.441718 H        1 UNL1     0.0233
     97 H         4.119401   10.528398   -0.125889 H        1 UNL1     0.0280
     98 H         5.726808   11.147112   -0.391637 H        1 UNL1     0.0280
     99 H         4.543563   11.146155   -1.733152 H        1 UNL1     0.0280
     100 H         6.652617   10.736035   -3.045137 H        1 UNL1     0.2922
     101 H         4.710601   0.905387   2.410645 H        1 UNL1     0.0236
     102 H         6.036827   2.13173   2.467812 H        1 UNL1     0.0236
     103 H         6.32117   0.518829   1.890583 H        1 UNL1     0.0236
     104 H         4.334801   -0.55299   1.251577 H        1 UNL1     0.2098
     105 H         0.701567   1.282855   -0.934278 H        1 UNL1     0.0234
     106 H         1.285813   -0.403085   -1.020054 H        1 UNL1     0.0234
     107 H         0.0   -0.0   0.0 H        1 UNL1     0.0234
     108 H         1.218471   3.258485   1.734936 H        1 UNL1     0.2098
     109 H         1.070981   3.06205   -0.858146 H        1 UNL1     0.0234
     110 H         -0.186169   2.326077   -1.902521 H        1 UNL1     0.0234
     111 H         0.049322   4.038759   -1.892169 H        1 UNL1     0.0234
     112 H         -3.504809   -1.56223   1.470997 H        1 UNL1     0.0342
     113 H         -3.16711   0.074987   2.137119 H        1 UNL1     0.0342
     114 H         -4.382167   -0.142406   0.874444 H        1 UNL1     0.0342
     115 H         -2.641086   1.957712   3.319032 H        1 UNL1     0.0234
     116 H         -1.13454   1.909263   4.240312 H        1 UNL1     0.0234
     117 H         -1.599254   3.299904   3.238411 H        1 UNL1     0.0234
     118 H         0.924125   7.680641   -0.778959 H        1 UNL1     0.0309
     119 H         2.187423   7.791494   -2.043811 H        1 UNL1     0.0309
     120 H         1.439047   6.266694   -1.623008 H        1 UNL1     0.0309
     121 H         -0.27677   6.260709   2.844386 H        1 UNL1     0.0524
     122 H         -2.015053   6.078943   2.575704 H        1 UNL1     0.0524
     123 H         -1.260904   5.327541   4.004128 H        1 UNL1     0.0524
@<TRIPOS>BOND
     1     1     2    1
     2     1    42    1
     3     2     3    2
     4     3     4    1
     5     4     5    2
     6     5     7    1
     7     6    75    1
     8     6    76    1
     9     6    77    1
    10     7     9   am
    11     9    10    1
    12    10    11    2
    13    10    43    1
    14    11    14    1
    15    11    15    1
    16    12    13   ar
    17    12    27   ar
    18    12    43    1
    19    13    14    1
    20    13    30   ar
    21    14    17    2
    22    15    16    1
    23    16    17    1
    24    16    18    1
    25    16    22    1
    26    18    19    1
    27    19    20    1
    28    20    21    1
    29    21    22    1
    30    23    24    1
    31    23    88    1
    32    23    89    1
    33    24    25    1
    34    24    26    1
    35    24    90    1
    36    25    91    1
    37    25    92    1
    38    25    93    1
    39    26    94    1
    40    26    95    1
    41    26    96    1
    42    27    28   ar
    43    28    29   ar
    44    29    30   ar
    45    29    31    1
    46    30    33    1
    47    31    32    1
    48    32    33    1
    49    32    35    1
    50    34    97    1
    51    34    98    1
    52    34    99    1
    53    35    61    1
    54    36    37    1
    55    36    60    1
    56    37    38    1
    57    38    39    1
    58    39    40    1
    59    40    41    1
    60    41    42    1
    61    45   100    1
    62    47   101    1
    63    47   102    1
    64    47   103    1
    65    48   104    1
    66    49   105    1
    67    49   106    1
    68    49   107    1
    69    50   108    1
    70    51    59    1
    71    52   109    1
    72    52   110    1
    73    52   111    1
    74    53    54    1
    75    54    55    2
    76    54    56    1
    77    56   112    1
    78    56   113    1
    79    56   114    1
    80    57   115    1
    81    57   116    1
    82    57   117    1
    83    58   118    1
    84    58   119    1
    85    58   120    1
    86    59   121    1
    87    59   122    1
    88    59   123    1
    89    60    61    2
    90     1    47    1
    91     1    62    1
    92     2    63    1
    93     3    64    1
    94     4    65    1
    95     5     6    1
    96     7     8    2
    97     9    78    1
    98    15    79    1
    99    18    80    1
   100    18    81    1
   101    19    82    1
   102    19    83    1
   103    20    23    1
   104    21    84    1
   105    21    85    1
   106    22    86    1
   107    22    87    1
   108    27    45    1
   109    28    34    1
   110    32    58    1
   111    33    46    2
   112    36    51    1
   113    36    66    1
   114    37    52    1
   115    37    67    1
   116    38    53    1
   117    38    68    1
   118    42    48    1
   119    42    72    1
   120    43    44    2
   121    60    73    1
   122    61    74    1
   123    39    69    1
   124    39    57    1
   125    40    70    1
   126    40    50    1
   127    41    71    1
   128    41    49    1
