@<TRIPOS>MOLECULE
*****
 123 128 0 0 0
SMALL
GASTEIGER

@<TRIPOS>ATOM
     1 C         4.97177   2.239315   0.527942 C.3        1 UNL1     0.0009
     2 C         6.358854   3.116217   -0.334658 C.2        1 UNL1     -0.0787
     3 C         7.671083   3.094766   -0.945919 C.2        1 UNL1     -0.0649
     4 C         8.456814   4.349168   -1.767782 C.2        1 UNL1     -0.0542
     5 C         9.482564   4.668609   -2.691294 C.2        1 UNL1     0.0115
     6 C         10.70101   4.093504   -3.464576 C.3        1 UNL1     -0.0348
     7 C         9.460395   6.103134   -3.411458 C.2        1 UNL1     0.2441
     8 O         10.184935   7.028883   -3.072997 O.2        1 UNL1     -0.2702
     9 N         8.74364   6.144405   -4.620056 N.am        1 UNL1     -0.2772
     10 C         7.417663   6.425014   -4.382644 C.2        1 UNL1     0.1049
     11 C         6.657578   5.39984   -4.042772 C.2        1 UNL1     0.0801
     12 C         5.912794   7.998525   -3.151073 C.ar        1 UNL1     0.0753
     13 C         5.247453   6.838598   -2.64068 C.ar        1 UNL1     0.0305
     14 C         5.516292   5.505292   -3.1746 C.2        1 UNL1     0.0924
     15 N         6.913868   4.081283   -4.09019 N.pl3        1 UNL1     -0.3170
     16 C         5.695356   3.385113   -3.772653 C.3        1 UNL1     0.1275
     17 N         4.929514   4.344895   -2.895141 N.2        1 UNL1     -0.2557
     18 C         4.894656   3.262355   -5.065523 C.3        1 UNL1     0.0016
     19 C         5.758531   2.571919   -6.108886 C.3        1 UNL1     0.0026
     20 N         6.14334   1.261014   -5.604426 N.3        1 UNL1     -0.3018
     21 C         6.865799   1.272514   -4.330734 C.3        1 UNL1     0.0026
     22 C         5.977893   1.96638   -3.296293 C.3        1 UNL1     0.0016
     23 C         6.710768   0.4069   -6.628711 C.3        1 UNL1     0.0012
     24 C         5.626939   -0.030364   -7.626644 C.3        1 UNL1     -0.0339
     25 C         5.852722   0.596236   -9.012448 C.3        1 UNL1     -0.0615
     26 C         5.56882   -1.546223   -7.70131 C.3        1 UNL1     -0.0615
     27 C         5.564807   9.277325   -2.722478 C.ar        1 UNL1     0.1347
     28 C         4.544788   9.523331   -1.820761 C.ar        1 UNL1     0.0342
     29 C         3.93671   8.363611   -1.294972 C.ar        1 UNL1     0.1435
     30 C         4.299338   7.074674   -1.687863 C.ar        1 UNL1     0.0774
     31 O         2.854671   8.438583   -0.489629 O.3        1 UNL1     -0.4436
     32 C         2.261368   7.13308   -0.556903 C.3        1 UNL1     0.3143
     33 C         3.386843   6.207387   -0.972369 C.2        1 UNL1     0.2504
     34 C         3.950665   10.86819   -1.506958 C.3        1 UNL1     -0.0327
     35 O         1.889341   6.765   0.777025 O.2        1 UNL1     -0.4528
     36 C         -1.133554   4.496335   0.425814 C.3        1 UNL1     0.0854
     37 C         -1.278372   3.146638   -0.377224 C.3        1 UNL1     0.0236
     38 C         -1.787604   1.89644   0.488473 C.3        1 UNL1     0.1131
     39 C         -1.069546   1.541362   1.852505 C.3        1 UNL1     0.0200
     40 C         0.59474   1.56469   1.962255 C.3        1 UNL1     0.0661
     41 C         1.671798   0.807349   0.89268 C.3        1 UNL1     0.0091
     42 C         3.358853   1.292976   0.360312 C.3        1 UNL1     0.0661
     43 C         6.924664   7.800636   -4.218415 C.2        1 UNL1     0.2131
     44 O         7.266277   8.676166   -4.992679 O.2        1 UNL1     -0.2851
     45 O         6.292439   10.349596   -3.234557 O.3        1 UNL1     -0.5056
     46 O         3.512854   5.024944   -0.744765 O.2        1 UNL1     -0.2836
     47 C         5.346755   1.962756   2.008781 C.3        1 UNL1     -0.0566
     48 O         3.937051   -0.056304   0.570655 O.3        1 UNL1     -0.3909
     49 C         0.916664   0.39888   -0.352479 C.3        1 UNL1     -0.0577
     50 O         1.05814   2.862536   2.27623 O.3        1 UNL1     -0.3910
     51 O         -1.297218   4.402546   1.8229 O.3        1 UNL1     -0.3753
     52 C         -0.175822   3.002534   -1.476571 C.3        1 UNL1     -0.0564
     53 O         -2.249268   0.736949   -0.345057 O.3        1 UNL1     -0.4608
     54 C         -2.36821   -0.557244   0.089507 C.2        1 UNL1     0.3042
     55 O         -1.599379   -1.492428   -0.129964 O.2        1 UNL1     -0.2512
     56 C         -3.56037   -0.787452   0.974083 C.3        1 UNL1     0.0332
     57 C         -1.903866   2.230362   3.030368 C.3        1 UNL1     -0.0567
     58 C         1.214121   7.186596   -1.693538 C.3        1 UNL1     0.0210
     59 C         -2.512338   4.95889   2.32273 C.3        1 UNL1     0.0372
     60 C         0.137383   5.234438   0.191117 C.2        1 UNL1     -0.0208
     61 C         0.966944   5.823345   1.053533 C.2        1 UNL1     0.0882
     62 H         4.400273   3.175279   0.519392 H        1 UNL1     0.0365
     63 H         5.988428   4.143414   -0.323642 H        1 UNL1     0.0576
     64 H         8.228374   2.16392   -1.072656 H        1 UNL1     0.0615
     65 H         7.869915   5.235694   -1.512629 H        1 UNL1     0.0622
     66 H         -1.932769   5.139426   0.031182 H        1 UNL1     0.0645
     67 H         -2.143177   3.320948   -1.040767 H        1 UNL1     0.0362
     68 H         -2.786199   2.263024   0.771219 H        1 UNL1     0.0741
     69 H         -1.310335   0.52037   2.11709 H        1 UNL1     0.0359
     70 H         0.732295   0.988206   2.89703 H        1 UNL1     0.0600
     71 H         1.795284   -0.168716   1.401605 H        1 UNL1     0.0348
     72 H         3.165493   1.841969   1.293336 H        1 UNL1     0.0602
     73 H         0.279242   5.362328   -0.853282 H        1 UNL1     0.0628
     74 H         0.924772   5.69464   2.135612 H        1 UNL1     0.1022
     75 H         11.494317   3.759028   -2.753363 H        1 UNL1     0.0279
     76 H         10.522196   3.197299   -4.054417 H        1 UNL1     0.0279
     77 H         11.237603   4.859637   -4.043203 H        1 UNL1     0.0279
     78 H         8.787594   5.234924   -5.075017 H        1 UNL1     0.1553
     79 H         7.642525   3.675224   -4.647961 H        1 UNL1     0.1484
     80 H         3.977669   2.694948   -4.865644 H        1 UNL1     0.0317
     81 H         4.581103   4.247711   -5.426645 H        1 UNL1     0.0317
     82 H         6.643454   3.172213   -6.366707 H        1 UNL1     0.0428
     83 H         5.168999   2.496316   -7.023099 H        1 UNL1     0.0428
     84 H         7.072641   0.273406   -3.934741 H        1 UNL1     0.0428
     85 H         7.859227   1.73173   -4.428396 H        1 UNL1     0.0428
     86 H         6.47736   1.838784   -2.353828 H        1 UNL1     0.0317
     87 H         5.044467   1.405072   -3.166887 H        1 UNL1     0.0317
     88 H         7.472561   0.982854   -7.170231 H        1 UNL1     0.0429
     89 H         7.217075   -0.461656   -6.188216 H        1 UNL1     0.0429
     90 H         4.646228   0.289014   -7.254602 H        1 UNL1     0.0308
     91 H         6.898539   0.510205   -9.322236 H        1 UNL1     0.0233
     92 H         5.216484   0.118084   -9.760899 H        1 UNL1     0.0233
     93 H         5.601267   1.663538   -9.034183 H        1 UNL1     0.0233
     94 H         5.109994   -1.860585   -8.644969 H        1 UNL1     0.0233
     95 H         6.579908   -1.961221   -7.663362 H        1 UNL1     0.0233
     96 H         4.984499   -1.964253   -6.876818 H        1 UNL1     0.0233
     97 H         3.087251   10.789655   -0.853063 H        1 UNL1     0.0280
     98 H         4.661979   11.523956   -0.988055 H        1 UNL1     0.0280
     99 H         3.632779   11.358403   -2.441696 H        1 UNL1     0.0280
     100 H         5.767109   11.056787   -3.565514 H        1 UNL1     0.2922
     101 H         4.543039   1.409753   2.494458 H        1 UNL1     0.0236
     102 H         5.613388   2.864485   2.559032 H        1 UNL1     0.0236
     103 H         6.229925   1.308223   2.097049 H        1 UNL1     0.0236
     104 H         4.251009   -0.101846   1.494953 H        1 UNL1     0.2098
     105 H         0.685021   1.21957   -1.026734 H        1 UNL1     0.0234
     106 H         1.361957   -0.429007   -0.904062 H        1 UNL1     0.0234
     107 H         0.0   -0.0   0.0 H        1 UNL1     0.0234
     108 H         0.966658   3.406154   1.470079 H        1 UNL1     0.2098
     109 H         -0.223562   3.808809   -2.221791 H        1 UNL1     0.0234
     110 H         0.837452   2.943698   -1.064796 H        1 UNL1     0.0234
     111 H         -0.287983   2.067961   -2.042203 H        1 UNL1     0.0234
     112 H         -4.063156   -1.71592   0.686856 H        1 UNL1     0.0342
     113 H         -3.291278   -0.799119   2.029211 H        1 UNL1     0.0342
     114 H         -4.266864   0.039741   0.819866 H        1 UNL1     0.0342
     115 H         -2.970713   1.972489   2.980102 H        1 UNL1     0.0234
     116 H         -1.551341   1.975751   4.031842 H        1 UNL1     0.0234
     117 H         -1.946715   3.330476   2.953859 H        1 UNL1     0.0234
     118 H         0.181356   7.117388   -1.309334 H        1 UNL1     0.0309
     119 H         1.304377   8.080275   -2.319152 H        1 UNL1     0.0309
     120 H         1.288278   6.331309   -2.374046 H        1 UNL1     0.0309
     121 H         -2.340174   5.249792   3.358632 H        1 UNL1     0.0524
     122 H         -2.816802   5.863323   1.770154 H        1 UNL1     0.0524
     123 H         -3.312129   4.22585   2.267221 H        1 UNL1     0.0524
@<TRIPOS>BOND
     1     1     2    1
     2     1    42    1
     3     2     3    2
     4     3     4    1
     5     4     5    2
     6     5     7    1
     7     6    75    1
     8     6    76    1
     9     6    77    1
    10     7     9   am
    11     9    10    1
    12    10    11    2
    13    10    43    1
    14    11    14    1
    15    11    15    1
    16    12    13   ar
    17    12    27   ar
    18    12    43    1
    19    13    14    1
    20    13    30   ar
    21    14    17    2
    22    15    16    1
    23    16    17    1
    24    16    18    1
    25    16    22    1
    26    18    19    1
    27    19    20    1
    28    20    21    1
    29    21    22    1
    30    23    24    1
    31    23    88    1
    32    23    89    1
    33    24    25    1
    34    24    26    1
    35    24    90    1
    36    25    91    1
    37    25    92    1
    38    25    93    1
    39    26    94    1
    40    26    95    1
    41    26    96    1
    42    27    28   ar
    43    28    29   ar
    44    29    30   ar
    45    29    31    1
    46    30    33    1
    47    31    32    1
    48    32    33    1
    49    32    35    1
    50    34    97    1
    51    34    98    1
    52    34    99    1
    53    35    61    1
    54    36    37    1
    55    36    60    1
    56    37    38    1
    57    38    39    1
    58    39    40    1
    59    40    41    1
    60    41    42    1
    61    45   100    1
    62    47   101    1
    63    47   102    1
    64    47   103    1
    65    48   104    1
    66    49   105    1
    67    49   106    1
    68    49   107    1
    69    50   108    1
    70    51    59    1
    71    52   109    1
    72    52   110    1
    73    52   111    1
    74    53    54    1
    75    54    55    2
    76    54    56    1
    77    56   112    1
    78    56   113    1
    79    56   114    1
    80    57   115    1
    81    57   116    1
    82    57   117    1
    83    58   118    1
    84    58   119    1
    85    58   120    1
    86    59   121    1
    87    59   122    1
    88    59   123    1
    89    60    61    2
    90     1    47    1
    91     1    62    1
    92     2    63    1
    93     3    64    1
    94     4    65    1
    95     5     6    1
    96     7     8    2
    97     9    78    1
    98    15    79    1
    99    18    80    1
   100    18    81    1
   101    19    82    1
   102    19    83    1
   103    20    23    1
   104    21    84    1
   105    21    85    1
   106    22    86    1
   107    22    87    1
   108    27    45    1
   109    28    34    1
   110    32    58    1
   111    33    46    2
   112    36    51    1
   113    36    66    1
   114    37    52    1
   115    37    67    1
   116    38    53    1
   117    38    68    1
   118    42    48    1
   119    42    72    1
   120    43    44    2
   121    60    73    1
   122    61    74    1
   123    39    69    1
   124    39    57    1
   125    40    70    1
   126    40    50    1
   127    41    71    1
   128    41    49    1
