@<TRIPOS>MOLECULE
*****
 123 128 0 0 0
SMALL
GASTEIGER

@<TRIPOS>ATOM
     1 C         -2.329131   2.891628   2.335291 C.3        1 UNL1     0.0009
     2 C         -1.851743   4.33957   3.390091 C.2        1 UNL1     -0.0787
     3 C         -1.407032   4.877006   4.658728 C.2        1 UNL1     -0.0649
     4 C         -0.984439   6.475984   5.020726 C.2        1 UNL1     -0.0542
     5 C         -0.281123   7.316107   5.918845 C.2        1 UNL1     0.0115
     6 C         0.455592   7.356934   7.285925 C.3        1 UNL1     -0.0348
     7 C         0.095893   8.806064   5.455296 C.2        1 UNL1     0.2441
     8 O         -0.52328   9.794482   5.824321 O.2        1 UNL1     -0.2702
     9 N         1.338784   8.925185   4.809398 N.am        1 UNL1     -0.2772
     10 C         1.199147   8.714844   3.456778 C.2        1 UNL1     0.1049
     11 C         1.188439   7.454658   3.061762 C.2        1 UNL1     0.0801
     12 C         -0.172259   9.387668   1.475898 C.ar        1 UNL1     0.0753
     13 C         -0.328618   7.99036   1.208144 C.ar        1 UNL1     0.0305
     14 C         0.456535   6.982784   1.917634 C.2        1 UNL1     0.0924
     15 N         1.501008   6.33515   3.736692 N.pl3        1 UNL1     -0.3170
     16 C         1.490923   5.24129   2.802015 C.3        1 UNL1     0.1275
     17 N         0.514652   5.666976   1.732711 N.2        1 UNL1     -0.2557
     18 C         2.861902   5.205044   2.133583 C.3        1 UNL1     0.0016
     19 C         3.926799   5.098259   3.213481 C.3        1 UNL1     0.0026
     20 N         3.688832   3.887433   3.98698 N.3        1 UNL1     -0.3018
     21 C         2.370444   3.802238   4.618615 C.3        1 UNL1     0.0026
     22 C         1.316184   3.906997   3.515232 C.3        1 UNL1     0.0016
     23 C         4.806284   3.534292   4.839761 C.3        1 UNL1     0.0012
     24 C         6.013095   3.099109   3.993605 C.3        1 UNL1     -0.0339
     25 C         7.335465   3.312464   4.748505 C.3        1 UNL1     -0.0615
     26 C         5.847169   1.65484   3.553906 C.3        1 UNL1     -0.0615
     27 C         -0.834117   10.347149   0.713364 C.ar        1 UNL1     0.1347
     28 C         -1.644065   10.033275   -0.363445 C.ar        1 UNL1     0.0342
     29 C         -1.821981   8.649953   -0.577759 C.ar        1 UNL1     0.1435
     30 C         -1.194082   7.676754   0.200603 C.ar        1 UNL1     0.0774
     31 O         -2.493087   8.184062   -1.653662 O.3        1 UNL1     -0.4436
     32 C         -2.066126   6.819714   -1.784548 C.3        1 UNL1     0.3143
     33 C         -1.586103   6.420644   -0.403775 C.2        1 UNL1     0.2504
     34 C         -2.181274   11.006244   -1.375788 C.3        1 UNL1     -0.0327
     35 O         -3.231109   6.033792   -2.064536 O.2        1 UNL1     -0.4528
     36 C         -2.032417   3.107674   -4.164312 C.3        1 UNL1     0.0854
     37 C         -0.935423   2.024859   -3.830188 C.3        1 UNL1     0.0236
     38 C         -1.433303   0.503982   -3.934071 C.3        1 UNL1     0.1131
     39 C         -2.75622   0.05836   -3.190041 C.3        1 UNL1     0.0200
     40 C         -3.059849   0.565162   -1.630105 C.3        1 UNL1     0.0661
     41 C         -1.979175   0.469203   -0.326055 C.3        1 UNL1     0.0091
     42 C         -1.768026   1.567873   1.127816 C.3        1 UNL1     0.0661
     43 C         0.78807   9.784597   2.535367 C.2        1 UNL1     0.2131
     44 O         1.30103   10.887056   2.600122 O.2        1 UNL1     -0.2851
     45 O         -0.663624   11.683611   1.068665 O.3        1 UNL1     -0.5056
     46 O         -1.555175   5.317193   0.093511 O.2        1 UNL1     -0.2836
     47 C         -3.743091   2.383173   2.725384 C.3        1 UNL1     -0.0566
     48 O         -1.735129   0.454926   2.107297 O.3        1 UNL1     -0.3909
     49 C         -0.59542   0.172812   -0.859785 C.3        1 UNL1     -0.0577
     50 O         -3.708786   1.82079   -1.628454 O.3        1 UNL1     -0.3910
     51 O         -3.344205   2.621946   -4.339557 O.3        1 UNL1     -0.3753
     52 C         0.033316   2.5071   -2.7015 C.3        1 UNL1     -0.0564
     53 O         -0.312954   -0.494248   -3.960224 O.3        1 UNL1     -0.4608
     54 C         -0.367048   -1.763811   -3.447181 C.2        1 UNL1     0.3042
     55 O         -0.759123   -2.102273   -2.331134 O.2        1 UNL1     -0.2512
     56 C         0.060625   -2.824709   -4.42099 C.3        1 UNL1     0.0332
     57 C         -3.954345   0.139315   -4.246506 C.3        1 UNL1     -0.0567
     58 C         -0.857449   6.830253   -2.749183 C.3        1 UNL1     0.0210
     59 C         -4.095718   2.477398   -3.135314 C.3        1 UNL1     0.0372
     60 C         -2.117961   4.235474   -3.196887 C.2        1 UNL1     -0.0208
     61 C         -3.180531   4.816094   -2.637807 C.2        1 UNL1     0.0882
     62 H         -2.465176   3.576809   1.489874 H        1 UNL1     0.0365
     63 H         -2.05044   5.165561   2.703995 H        1 UNL1     0.0576
     64 H         -1.139598   4.225962   5.49403 H        1 UNL1     0.0615
     65 H         -1.362745   7.045125   4.167235 H        1 UNL1     0.0622
     66 H         -1.702797   3.550356   -5.114801 H        1 UNL1     0.0645
     67 H         -0.232703   2.084243   -4.679434 H        1 UNL1     0.0362
     68 H         -1.673929   0.462105   -5.007322 H        1 UNL1     0.0741
     69 H         -2.754994   -1.019157   -3.093282 H        1 UNL1     0.0359
     70 H         -3.850646   -0.155271   -1.346068 H        1 UNL1     0.0600
     71 H         -2.266525   -0.515905   0.091018 H        1 UNL1     0.0348
     72 H         -2.771815   1.779011   0.7314 H        1 UNL1     0.0602
     73 H         -1.152563   4.657629   -3.066352 H        1 UNL1     0.0628
     74 H         -4.193715   4.414488   -2.675326 H        1 UNL1     0.1022
     75 H         -0.051633   8.066207   7.983555 H        1 UNL1     0.0279
     76 H         0.466618   6.432447   7.858876 H        1 UNL1     0.0279
     77 H         1.458709   7.802432   7.215296 H        1 UNL1     0.0279
     78 H         1.978275   8.217617   5.165033 H        1 UNL1     0.1553
     79 H         2.04778   6.32636   4.578058 H        1 UNL1     0.1484
     80 H         2.901904   4.351697   1.445859 H        1 UNL1     0.0317
     81 H         3.026106   6.103171   1.528556 H        1 UNL1     0.0317
     82 H         3.939174   5.986397   3.862303 H        1 UNL1     0.0428
     83 H         4.896425   5.075719   2.715115 H        1 UNL1     0.0428
     84 H         2.187914   2.849891   5.126089 H        1 UNL1     0.0428
     85 H         2.247026   4.55428   5.410144 H        1 UNL1     0.0428
     86 H         0.375285   3.708202   3.993956 H        1 UNL1     0.0317
     87 H         1.4249   3.071797   2.81258 H        1 UNL1     0.0317
     88 H         5.088028   4.423237   5.419151 H        1 UNL1     0.0429
     89 H         4.526927   2.755524   5.561048 H        1 UNL1     0.0429
     90 H         6.037799   3.691956   3.071577 H        1 UNL1     0.0308
     91 H         8.197191   3.091855   4.111432 H        1 UNL1     0.0233
     92 H         7.411576   4.340097   5.111529 H        1 UNL1     0.0233
     93 H         7.420275   2.668821   5.632454 H        1 UNL1     0.0233
     94 H         6.60379   1.398927   2.804327 H        1 UNL1     0.0233
     95 H         5.980202   0.986288   4.409068 H        1 UNL1     0.0233
     96 H         4.858415   1.480815   3.120259 H        1 UNL1     0.0233
     97 H         -1.408032   11.359995   -2.051205 H        1 UNL1     0.0280
     98 H         -2.953905   10.556259   -2.012821 H        1 UNL1     0.0280
     99 H         -2.612372   11.878136   -0.857085 H        1 UNL1     0.0280
     100 H         -0.956902   12.301149   0.421937 H        1 UNL1     0.2922
     101 H         -4.040003   2.81826   3.679427 H        1 UNL1     0.0236
     102 H         -3.821902   1.296547   2.729226 H        1 UNL1     0.0236
     103 H         -4.51496   2.718389   2.012613 H        1 UNL1     0.0236
     104 H         -2.637679   0.08446   2.163226 H        1 UNL1     0.2098
     105 H         -0.536605   -0.712056   -1.488563 H        1 UNL1     0.0234
     106 H         -0.105031   1.015585   -1.346796 H        1 UNL1     0.0234
     107 H         0.0   0.0   0.0 H        1 UNL1     0.0234
     108 H         -3.158393   2.432488   -2.154441 H        1 UNL1     0.2098
     109 H         1.060846   2.644952   -3.066042 H        1 UNL1     0.0234
     110 H         -0.305587   3.42314   -2.205759 H        1 UNL1     0.0234
     111 H         0.102747   1.773733   -1.887069 H        1 UNL1     0.0234
     112 H         -0.758278   -3.531856   -4.584349 H        1 UNL1     0.0342
     113 H         0.404757   -2.400975   -5.363257 H        1 UNL1     0.0342
     114 H         0.900305   -3.37818   -3.978528 H        1 UNL1     0.0342
     115 H         -3.965666   1.100699   -4.778295 H        1 UNL1     0.0234
     116 H         -3.937159   -0.651837   -4.998723 H        1 UNL1     0.0234
     117 H         -4.953881   0.142785   -3.778682 H        1 UNL1     0.0234
     118 H         0.042234   7.267411   -2.281777 H        1 UNL1     0.0309
     119 H         -0.611494   5.838034   -3.140603 H        1 UNL1     0.0309
     120 H         -1.023229   7.46872   -3.623817 H        1 UNL1     0.0309
     121 H         -3.516684   1.849485   -2.458703 H        1 UNL1     0.0524
     122 H         -4.265003   3.442512   -2.629413 H        1 UNL1     0.0524
     123 H         -5.056532   2.015915   -3.344986 H        1 UNL1     0.0524
@<TRIPOS>BOND
     1     1     2    1
     2     1    42    1
     3     2     3    2
     4     3     4    1
     5     4     5    2
     6     5     7    1
     7     6    75    1
     8     6    76    1
     9     6    77    1
    10     7     9   am
    11     9    10    1
    12    10    11    2
    13    10    43    1
    14    11    14    1
    15    11    15    1
    16    12    13   ar
    17    12    27   ar
    18    12    43    1
    19    13    14    1
    20    13    30   ar
    21    14    17    2
    22    15    16    1
    23    16    17    1
    24    16    18    1
    25    16    22    1
    26    18    19    1
    27    19    20    1
    28    20    21    1
    29    21    22    1
    30    23    24    1
    31    23    88    1
    32    23    89    1
    33    24    25    1
    34    24    26    1
    35    24    90    1
    36    25    91    1
    37    25    92    1
    38    25    93    1
    39    26    94    1
    40    26    95    1
    41    26    96    1
    42    27    28   ar
    43    28    29   ar
    44    29    30   ar
    45    29    31    1
    46    30    33    1
    47    31    32    1
    48    32    33    1
    49    32    35    1
    50    34    97    1
    51    34    98    1
    52    34    99    1
    53    35    61    1
    54    36    37    1
    55    36    60    1
    56    37    38    1
    57    38    39    1
    58    39    40    1
    59    40    41    1
    60    41    42    1
    61    45   100    1
    62    47   101    1
    63    47   102    1
    64    47   103    1
    65    48   104    1
    66    49   105    1
    67    49   106    1
    68    49   107    1
    69    50   108    1
    70    51    59    1
    71    52   109    1
    72    52   110    1
    73    52   111    1
    74    53    54    1
    75    54    55    2
    76    54    56    1
    77    56   112    1
    78    56   113    1
    79    56   114    1
    80    57   115    1
    81    57   116    1
    82    57   117    1
    83    58   118    1
    84    58   119    1
    85    58   120    1
    86    59   121    1
    87    59   122    1
    88    59   123    1
    89    60    61    2
    90     1    47    1
    91     1    62    1
    92     2    63    1
    93     3    64    1
    94     4    65    1
    95     5     6    1
    96     7     8    2
    97     9    78    1
    98    15    79    1
    99    18    80    1
   100    18    81    1
   101    19    82    1
   102    19    83    1
   103    20    23    1
   104    21    84    1
   105    21    85    1
   106    22    86    1
   107    22    87    1
   108    27    45    1
   109    28    34    1
   110    32    58    1
   111    33    46    2
   112    36    51    1
   113    36    66    1
   114    37    52    1
   115    37    67    1
   116    38    53    1
   117    38    68    1
   118    42    48    1
   119    42    72    1
   120    43    44    2
   121    60    73    1
   122    61    74    1
   123    39    69    1
   124    39    57    1
   125    40    70    1
   126    40    50    1
   127    41    71    1
   128    41    49    1
