@<TRIPOS>MOLECULE
*****
 123 128 0 0 0
SMALL
GASTEIGER

@<TRIPOS>ATOM
     1 C         -2.657254   -4.333413   -1.340217 C.3        1 UNL1     0.0009
     2 C         -2.35579   -6.057525   -1.95144 C.2        1 UNL1     -0.0787
     3 C         -2.477062   -7.062364   -2.986639 C.2        1 UNL1     -0.0649
     4 C         -1.818496   -8.621948   -3.005243 C.2        1 UNL1     -0.0542
     5 C         -1.448324   -9.716235   -3.825357 C.2        1 UNL1     0.0115
     6 C         -1.542978   -10.297855   -5.262744 C.3        1 UNL1     -0.0348
     7 C         -0.439728   -10.819472   -3.240044 C.2        1 UNL1     0.2441
     8 O         -0.811167   -11.912416   -2.835037 O.2        1 UNL1     -0.2702
     9 N         0.921752   -10.550871   -3.464491 N.am        1 UNL1     -0.2772
     10 C         1.433263   -9.779572   -2.446269 C.2        1 UNL1     0.1049
     11 C         1.228109   -8.47845   -2.542265 C.2        1 UNL1     0.0801
     12 C         1.558406   -9.614894   0.046632 C.ar        1 UNL1     0.0753
     13 C         1.128511   -8.25756   -0.099802 C.ar        1 UNL1     0.0305
     14 C         1.076799   -7.608198   -1.407742 C.2        1 UNL1     0.0924
     15 N         0.780518   -7.748663   -3.578413 N.pl3        1 UNL1     -0.3170
     16 C         0.903555   -6.359771   -3.223315 C.3        1 UNL1     0.1275
     17 N         0.802028   -6.344309   -1.7176 N.2        1 UNL1     -0.2557
     18 C         2.32995   -5.932654   -3.555984 C.3        1 UNL1     0.0016
     19 C         2.597708   -6.231819   -5.022407 C.3        1 UNL1     0.0026
     20 N         1.630494   -5.50423   -5.832431 N.3        1 UNL1     -0.3018
     21 C         0.22659   -5.802549   -5.541867 C.3        1 UNL1     0.0026
     22 C         -0.021322   -5.49048   -4.06503 C.3        1 UNL1     0.0016
     23 C         1.978302   -5.479248   -7.239218 C.3        1 UNL1     0.0012
     24 C         0.788766   -5.939671   -8.096406 C.3        1 UNL1     -0.0339
     25 C         0.958055   -7.396854   -8.556858 C.3        1 UNL1     -0.0615
     26 C         -0.509944   -5.741553   -7.33425 C.3        1 UNL1     -0.0615
     27 C         1.720632   -10.18879   1.305379 C.ar        1 UNL1     0.1347
     28 C         1.522448   -9.495351   2.486021 C.ar        1 UNL1     0.0342
     29 C         1.052474   -8.175576   2.31725 C.ar        1 UNL1     0.1435
     30 C         0.850672   -7.598851   1.062705 C.ar        1 UNL1     0.0774
     31 O         0.916916   -7.336105   3.366973 O.3        1 UNL1     -0.4436
     32 C         0.894403   -6.025139   2.782392 C.3        1 UNL1     0.3143
     33 C         0.448439   -6.237781   1.349872 C.2        1 UNL1     0.2504
     34 C         1.916049   -9.962535   3.859673 C.3        1 UNL1     -0.0327
     35 O         -0.143238   -5.284679   3.436817 O.2        1 UNL1     -0.4528
     36 C         0.962422   -1.654275   3.360817 C.3        1 UNL1     0.0854
     37 C         1.327866   -0.749811   2.121496 C.3        1 UNL1     0.0236
     38 C         0.502115   0.621044   2.018356 C.3        1 UNL1     0.1131
     39 C         -1.076552   0.595903   2.115551 C.3        1 UNL1     0.0200
     40 C         -1.95483   -0.564655   1.300584 C.3        1 UNL1     0.0661
     41 C         -1.785319   -0.970661   -0.337719 C.3        1 UNL1     0.0091
     42 C         -2.010678   -2.576691   -1.195205 C.3        1 UNL1     0.0661
     43 C         1.911992   -10.363984   -1.184669 C.2        1 UNL1     0.2131
     44 O         2.637614   -11.341811   -1.192599 O.2        1 UNL1     -0.2851
     45 O         2.097981   -11.528981   1.359555 O.3        1 UNL1     -0.5056
     46 O         -0.128865   -5.465311   0.617846 O.2        1 UNL1     -0.2836
     47 C         -4.14815   -4.153783   -0.946587 C.3        1 UNL1     -0.0566
     48 O         -2.835267   -2.007056   -2.288221 O.3        1 UNL1     -0.3909
     49 C         -0.499543   -0.368682   -0.859156 C.3        1 UNL1     -0.0577
     50 O         -2.078376   -1.737998   2.078868 O.3        1 UNL1     -0.3910
     51 O         -0.151287   -1.239485   4.119127 O.3        1 UNL1     -0.3753
     52 C         1.679832   -1.605045   0.860685 C.3        1 UNL1     -0.0564
     53 O         1.096659   1.609494   1.058247 O.3        1 UNL1     -0.4608
     54 C         0.801309   1.697386   -0.277034 C.2        1 UNL1     0.3042
     55 O         -0.266223   1.425993   -0.825267 O.2        1 UNL1     -0.2512
     56 C         1.927373   2.244525   -1.107294 C.3        1 UNL1     0.0332
     57 C         -1.471022   0.898063   3.635836 C.3        1 UNL1     -0.0567
     58 C         2.35673   -5.522026   2.780178 C.3        1 UNL1     0.0210
     59 C         -0.951867   -2.300474   4.638009 C.3        1 UNL1     0.0372
     60 C         0.756886   -3.095006   3.049032 C.2        1 UNL1     -0.0208
     61 C         -0.195044   -3.938893   3.449568 C.2        1 UNL1     0.0882
     62 H         -2.118656   -4.586361   -0.419 H        1 UNL1     0.0365
     63 H         -1.904087   -6.511102   -1.066735 H        1 UNL1     0.0576
     64 H         -2.894588   -6.825827   -3.967879 H        1 UNL1     0.0615
     65 H         -1.50628   -8.78536   -1.970206 H        1 UNL1     0.0622
     66 H         1.85062   -1.60948   4.006683 H        1 UNL1     0.0645
     67 H         2.341932   -0.378507   2.350325 H        1 UNL1     0.0362
     68 H         0.843577   1.111457   2.942705 H        1 UNL1     0.0741
     69 H         -1.465212   1.518616   1.70573 H        1 UNL1     0.0359
     70 H         -2.959959   -0.102527   1.33541 H        1 UNL1     0.0600
     71 H         -2.539025   -0.292562   -0.783885 H        1 UNL1     0.0348
     72 H         -2.545076   -2.666233   -0.238274 H        1 UNL1     0.0602
     73 H         1.596141   -3.458892   2.510064 H        1 UNL1     0.0628
     74 H         -1.113474   -3.637746   3.954578 H        1 UNL1     0.1022
     75 H         -0.533381   -10.603554   -5.62921 H        1 UNL1     0.0279
     76 H         -2.121089   -11.211802   -5.379177 H        1 UNL1     0.0279
     77 H         -1.824941   -9.541514   -6.009836 H        1 UNL1     0.0279
     78 H         1.028658   -10.025791   -4.329903 H        1 UNL1     0.1553
     79 H         0.786259   -8.069332   -4.529239 H        1 UNL1     0.1484
     80 H         2.443109   -4.863777   -3.338123 H        1 UNL1     0.0317
     81 H         3.053482   -6.45953   -2.924673 H        1 UNL1     0.0317
     82 H         2.557283   -7.310916   -5.231756 H        1 UNL1     0.0428
     83 H         3.620565   -5.921277   -5.23776 H        1 UNL1     0.0428
     84 H         -0.47899   -5.185681   -6.10706 H        1 UNL1     0.0428
     85 H         -0.038239   -6.832396   -5.81863 H        1 UNL1     0.0428
     86 H         -1.081081   -5.592047   -3.921562 H        1 UNL1     0.0317
     87 H         0.160162   -4.426224   -3.871335 H        1 UNL1     0.0317
     88 H         2.225702   -4.444878   -7.511551 H        1 UNL1     0.0429
     89 H         2.870012   -6.086838   -7.440372 H        1 UNL1     0.0429
     90 H         0.716131   -5.299359   -8.983501 H        1 UNL1     0.0308
     91 H         0.630023   -7.527391   -9.592453 H        1 UNL1     0.0233
     92 H         2.000641   -7.711226   -8.468573 H        1 UNL1     0.0233
     93 H         0.374675   -8.097799   -7.947614 H        1 UNL1     0.0233
     94 H         -1.329748   -6.25919   -7.843965 H        1 UNL1     0.0233
     95 H         -0.420402   -6.160707   -6.328142 H        1 UNL1     0.0233
     96 H         -0.767566   -4.681799   -7.253505 H        1 UNL1     0.0233
     97 H         2.516493   -9.225322   4.384281 H        1 UNL1     0.0280
     98 H         1.043404   -10.149455   4.499053 H        1 UNL1     0.0280
     99 H         2.502819   -10.892227   3.779243 H        1 UNL1     0.0280
     100 H         2.988763   -11.695482   1.105766 H        1 UNL1     0.2922
     101 H         -4.321428   -3.12835   -0.620829 H        1 UNL1     0.0236
     102 H         -4.487183   -4.880135   -0.208716 H        1 UNL1     0.0236
     103 H         -4.823316   -4.29178   -1.807575 H        1 UNL1     0.0236
     104 H         -3.675182   -1.699616   -1.894527 H        1 UNL1     0.2098
     105 H         0.161973   -1.078251   -1.349788 H        1 UNL1     0.0234
     106 H         -0.630585   0.517348   -1.480208 H        1 UNL1     0.0234
     107 H         0.0   0.0   0.0 H        1 UNL1     0.0234
     108 H         -2.421389   -1.471204   2.953472 H        1 UNL1     0.2098
     109 H         1.386893   -2.65782   0.977144 H        1 UNL1     0.0234
     110 H         1.25018   -1.205312   -0.06417 H        1 UNL1     0.0234
     111 H         2.76099   -1.616858   0.668583 H        1 UNL1     0.0234
     112 H         2.754833   1.528886   -1.129996 H        1 UNL1     0.0342
     113 H         1.605519   2.50176   -2.115304 H        1 UNL1     0.0342
     114 H         2.290772   3.164474   -0.628963 H        1 UNL1     0.0342
     115 H         -2.120199   1.780324   3.721705 H        1 UNL1     0.0234
     116 H         -1.975321   0.069321   4.136752 H        1 UNL1     0.0234
     117 H         -0.61376   1.202667   4.260545 H        1 UNL1     0.0234
     118 H         2.894736   -5.815433   1.861772 H        1 UNL1     0.0309
     119 H         2.438491   -4.438507   2.912474 H        1 UNL1     0.0309
     120 H         2.957009   -5.971189   3.578942 H        1 UNL1     0.0309
     121 H         -0.444015   -2.697378   5.516594 H        1 UNL1     0.0524
     122 H         -1.948483   -1.954217   4.95879 H        1 UNL1     0.0524
     123 H         -1.072958   -3.079866   3.891028 H        1 UNL1     0.0524
@<TRIPOS>BOND
     1     1     2    1
     2     1    42    1
     3     2     3    2
     4     3     4    1
     5     4     5    2
     6     5     7    1
     7     6    75    1
     8     6    76    1
     9     6    77    1
    10     7     9   am
    11     9    10    1
    12    10    11    2
    13    10    43    1
    14    11    14    1
    15    11    15    1
    16    12    13   ar
    17    12    27   ar
    18    12    43    1
    19    13    14    1
    20    13    30   ar
    21    14    17    2
    22    15    16    1
    23    16    17    1
    24    16    18    1
    25    16    22    1
    26    18    19    1
    27    19    20    1
    28    20    21    1
    29    21    22    1
    30    23    24    1
    31    23    88    1
    32    23    89    1
    33    24    25    1
    34    24    26    1
    35    24    90    1
    36    25    91    1
    37    25    92    1
    38    25    93    1
    39    26    94    1
    40    26    95    1
    41    26    96    1
    42    27    28   ar
    43    28    29   ar
    44    29    30   ar
    45    29    31    1
    46    30    33    1
    47    31    32    1
    48    32    33    1
    49    32    35    1
    50    34    97    1
    51    34    98    1
    52    34    99    1
    53    35    61    1
    54    36    37    1
    55    36    60    1
    56    37    38    1
    57    38    39    1
    58    39    40    1
    59    40    41    1
    60    41    42    1
    61    45   100    1
    62    47   101    1
    63    47   102    1
    64    47   103    1
    65    48   104    1
    66    49   105    1
    67    49   106    1
    68    49   107    1
    69    50   108    1
    70    51    59    1
    71    52   109    1
    72    52   110    1
    73    52   111    1
    74    53    54    1
    75    54    55    2
    76    54    56    1
    77    56   112    1
    78    56   113    1
    79    56   114    1
    80    57   115    1
    81    57   116    1
    82    57   117    1
    83    58   118    1
    84    58   119    1
    85    58   120    1
    86    59   121    1
    87    59   122    1
    88    59   123    1
    89    60    61    2
    90     1    47    1
    91     1    62    1
    92     2    63    1
    93     3    64    1
    94     4    65    1
    95     5     6    1
    96     7     8    2
    97     9    78    1
    98    15    79    1
    99    18    80    1
   100    18    81    1
   101    19    82    1
   102    19    83    1
   103    20    23    1
   104    21    84    1
   105    21    85    1
   106    22    86    1
   107    22    87    1
   108    27    45    1
   109    28    34    1
   110    32    58    1
   111    33    46    2
   112    36    51    1
   113    36    66    1
   114    37    52    1
   115    37    67    1
   116    38    53    1
   117    38    68    1
   118    42    48    1
   119    42    72    1
   120    43    44    2
   121    60    73    1
   122    61    74    1
   123    39    69    1
   124    39    57    1
   125    40    70    1
   126    40    50    1
   127    41    71    1
   128    41    49    1
