@<TRIPOS>MOLECULE
*****
 123 128 0 0 0
SMALL
GASTEIGER

@<TRIPOS>ATOM
     1 C         2.134475   -4.639164   -1.983409 C.3        1 UNL1     0.0009
     2 C         2.07331   -5.897448   -3.343563 C.2        1 UNL1     -0.0787
     3 C         1.671558   -7.199355   -3.833134 C.2        1 UNL1     -0.0649
     4 C         1.822476   -7.812359   -5.40406 C.2        1 UNL1     -0.0542
     5 C         1.352778   -8.78483   -6.32099 C.2        1 UNL1     0.0115
     6 C         0.484254   -10.065379   -6.459497 C.3        1 UNL1     -0.0348
     7 C         1.631122   -8.573678   -7.887811 C.2        1 UNL1     0.2441
     8 O         2.508631   -9.172488   -8.494384 O.2        1 UNL1     -0.2702
     9 N         0.635574   -7.853852   -8.571102 N.am        1 UNL1     -0.2772
     10 C         0.892092   -6.503371   -8.510088 C.2        1 UNL1     0.1049
     11 C         0.494659   -5.88441   -7.413203 C.2        1 UNL1     0.0801
     12 C         2.700547   -4.810203   -8.856508 C.ar        1 UNL1     0.0753
     13 C         2.366201   -4.303273   -7.560421 C.ar        1 UNL1     0.0305
     14 C         1.16477   -4.741854   -6.853836 C.2        1 UNL1     0.0924
     15 N         -0.310157   -6.31016   -6.424499 N.pl3        1 UNL1     -0.3170
     16 C         -0.563991   -5.193745   -5.55304 C.3        1 UNL1     0.1275
     17 N         0.651558   -4.312149   -5.704534 N.2        1 UNL1     -0.2557
     18 C         -1.73107   -4.411796   -6.148175 C.3        1 UNL1     0.0016
     19 C         -2.911087   -5.354974   -6.320115 C.3        1 UNL1     0.0026
     20 N         -3.26058   -5.908888   -5.019322 N.3        1 UNL1     -0.3018
     21 C         -2.181112   -6.627698   -4.339301 C.3        1 UNL1     0.0026
     22 C         -1.008001   -5.66022   -4.172894 C.3        1 UNL1     0.0016
     23 C         -4.545446   -6.579532   -5.018729 C.3        1 UNL1     0.0012
     24 C         -5.33825   -6.225773   -6.286827 C.3        1 UNL1     -0.0339
     25 C         -5.665689   -7.480108   -7.113558 C.3        1 UNL1     -0.0615
     26 C         -6.594374   -5.455844   -5.917852 C.3        1 UNL1     -0.0615
     27 C         3.779303   -4.299919   -9.574849 C.ar        1 UNL1     0.1347
     28 C         4.56924   -3.259389   -9.119497 C.ar        1 UNL1     0.0342
     29 C         4.251663   -2.809254   -7.820387 C.ar        1 UNL1     0.1435
     30 C         3.196503   -3.335487   -7.074105 C.ar        1 UNL1     0.0774
     31 O         4.857882   -1.729212   -7.280929 O.3        1 UNL1     -0.4436
     32 C         3.980558   -1.310852   -6.224449 C.3        1 UNL1     0.3143
     33 C         3.181838   -2.546027   -5.860307 C.2        1 UNL1     0.2504
     34 C         5.576995   -2.4961   -9.933082 C.3        1 UNL1     -0.0327
     35 O         4.798793   -0.994157   -5.091555 O.2        1 UNL1     -0.4528
     36 C         2.935921   1.708477   -3.185363 C.3        1 UNL1     0.0854
     37 C         1.478292   1.678737   -2.583737 C.3        1 UNL1     0.0236
     38 C         1.385876   2.01801   -1.019097 C.3        1 UNL1     0.1131
     39 C         2.318583   1.255517   0.006051 C.3        1 UNL1     0.0200
     40 C         2.546405   -0.391881   -0.122854 C.3        1 UNL1     0.0661
     41 C         1.321706   -1.555057   -0.280156 C.3        1 UNL1     0.0091
     42 C         1.313833   -3.162773   -1.163666 C.3        1 UNL1     0.0661
     43 C         1.806335   -5.835865   -9.448677 C.2        1 UNL1     0.2131
     44 O         1.735661   -6.058052   -10.643823 O.2        1 UNL1     -0.2851
     45 O         4.064749   -4.880026   -10.809124 O.3        1 UNL1     -0.5056
     46 O         2.668092   -2.825741   -4.80027 O.2        1 UNL1     -0.2836
     47 C         3.181336   -5.051648   -0.913867 C.3        1 UNL1     -0.0566
     48 O         0.721087   -3.912501   -0.029789 O.3        1 UNL1     -0.3909
     49 C         0.025818   -0.855662   -0.625137 C.3        1 UNL1     -0.0577
     50 O         3.606454   -0.68322   -1.011191 O.3        1 UNL1     -0.3910
     51 O         3.984008   1.854125   -2.253841 O.3        1 UNL1     -0.3753
     52 C         0.597456   0.570278   -3.247359 C.3        1 UNL1     -0.0564
     53 O         -0.006714   2.327292   -0.552872 O.3        1 UNL1     -0.4608
     54 C         -1.088657   2.540381   -1.366458 C.2        1 UNL1     0.3042
     55 O         -1.620646   3.6168   -1.635062 O.2        1 UNL1     -0.2512
     56 C         -1.606047   1.290025   -2.018863 C.3        1 UNL1     0.0332
     57 C         3.607467   2.168781   0.256854 C.3        1 UNL1     -0.0567
     58 C         3.024758   -0.261984   -6.839146 C.3        1 UNL1     0.0210
     59 C         5.114711   1.015906   -2.487859 C.3        1 UNL1     0.0372
     60 C         3.284937   0.545286   -4.045791 C.2        1 UNL1     -0.0208
     61 C         4.388225   -0.203186   -4.081711 C.2        1 UNL1     0.0882
     62 H         2.642493   -3.950567   -2.669312 H        1 UNL1     0.0365
     63 H         2.66662   -5.396382   -4.111277 H        1 UNL1     0.0576
     64 H         1.057405   -7.872773   -3.231111 H        1 UNL1     0.0615
     65 H         2.510572   -7.115763   -5.890641 H        1 UNL1     0.0622
     66 H         2.943484   2.585907   -3.847258 H        1 UNL1     0.0645
     67 H         0.98642   2.560966   -3.029039 H        1 UNL1     0.0362
     68 H         1.75472   3.05496   -1.033629 H        1 UNL1     0.0741
     69 H         1.902862   1.360393   0.999321 H        1 UNL1     0.0359
     70 H         2.960026   -0.606317   0.881136 H        1 UNL1     0.0600
     71 H         1.155656   -1.806265   0.785808 H        1 UNL1     0.0348
     72 H         2.37217   -2.902473   -1.017097 H        1 UNL1     0.0602
     73 H         2.537372   0.424591   -4.789987 H        1 UNL1     0.0628
     74 H         5.172974   -0.181552   -3.324784 H        1 UNL1     0.1022
     75 H         -0.205908   -9.978365   -7.333075 H        1 UNL1     0.0279
     76 H         1.01489   -10.99089   -6.671452 H        1 UNL1     0.0279
     77 H         -0.228897   -10.1872   -5.631079 H        1 UNL1     0.0279
     78 H         -0.267053   -8.014495   -8.128907 H        1 UNL1     0.1553
     79 H         -0.942789   -7.083751   -6.515426 H        1 UNL1     0.1484
     80 H         -1.97927   -3.577188   -5.481398 H        1 UNL1     0.0317
     81 H         -1.455781   -3.971397   -7.112497 H        1 UNL1     0.0317
     82 H         -2.692009   -6.153324   -7.044376 H        1 UNL1     0.0428
     83 H         -3.731441   -4.777441   -6.747345 H        1 UNL1     0.0428
     84 H         -2.444828   -6.964198   -3.331812 H        1 UNL1     0.0428
     85 H         -1.909955   -7.552514   -4.867038 H        1 UNL1     0.0428
     86 H         -0.293084   -6.17502   -3.558188 H        1 UNL1     0.0317
     87 H         -1.310126   -4.808296   -3.551571 H        1 UNL1     0.0317
     88 H         -4.365438   -7.662497   -5.009836 H        1 UNL1     0.0429
     89 H         -5.119122   -6.341422   -4.113757 H        1 UNL1     0.0429
     90 H         -4.741058   -5.545704   -6.905763 H        1 UNL1     0.0308
     91 H         -5.774351   -8.360976   -6.47374 H        1 UNL1     0.0233
     92 H         -6.585441   -7.336586   -7.685456 H        1 UNL1     0.0233
     93 H         -4.883447   -7.713476   -7.846 H        1 UNL1     0.0233
     94 H         -7.484728   -6.02954   -6.1971 H        1 UNL1     0.0233
     95 H         -6.626265   -5.288507   -4.837601 H        1 UNL1     0.0233
     96 H         -6.633187   -4.48836   -6.426219 H        1 UNL1     0.0233
     97 H         6.579339   -2.580931   -9.524008 H        1 UNL1     0.0280
     98 H         5.641227   -2.865607   -10.964874 H        1 UNL1     0.0280
     99 H         5.301769   -1.428918   -9.954714 H        1 UNL1     0.0280
     100 H         4.181712   -4.266017   -11.512641 H        1 UNL1     0.2922
     101 H         4.076073   -4.438507   -1.019509 H        1 UNL1     0.0236
     102 H         3.411302   -6.116502   -0.927463 H        1 UNL1     0.0236
     103 H         2.826028   -4.853955   0.111251 H        1 UNL1     0.0236
     104 H         -0.162492   -4.221624   -0.310329 H        1 UNL1     0.2098
     105 H         -0.041038   -0.516776   -1.655913 H        1 UNL1     0.0234
     106 H         -0.874927   -1.403369   -0.348366 H        1 UNL1     0.0234
     107 H         -0.0   0.0   0.0 H        1 UNL1     0.0234
     108 H         4.439338   -0.587442   -0.510293 H        1 UNL1     0.2098
     109 H         0.072642   0.935616   -4.141121 H        1 UNL1     0.0234
     110 H         1.161153   -0.334854   -3.497808 H        1 UNL1     0.0234
     111 H         -0.187331   0.215192   -2.566206 H        1 UNL1     0.0234
     112 H         -2.452772   1.532135   -2.668312 H        1 UNL1     0.0342
     113 H         -0.828354   0.764051   -2.570577 H        1 UNL1     0.0342
     114 H         -1.968365   0.616255   -1.230241 H        1 UNL1     0.0342
     115 H         4.50478   1.747881   -0.21734 H        1 UNL1     0.0234
     116 H         3.499705   3.195748   -0.097794 H        1 UNL1     0.0234
     117 H         3.922124   2.204816   1.314036 H        1 UNL1     0.0234
     118 H         2.623533   0.429798   -6.077922 H        1 UNL1     0.0309
     119 H         3.485344   0.319385   -7.644176 H        1 UNL1     0.0309
     120 H         2.124357   -0.714518   -7.268792 H        1 UNL1     0.0309
     121 H         5.000277   0.127218   -1.867782 H        1 UNL1     0.0524
     122 H         5.178433   0.682638   -3.537101 H        1 UNL1     0.0524
     123 H         6.030597   1.539002   -2.227827 H        1 UNL1     0.0524
@<TRIPOS>BOND
     1     1     2    1
     2     1    42    1
     3     2     3    2
     4     3     4    1
     5     4     5    2
     6     5     7    1
     7     6    75    1
     8     6    76    1
     9     6    77    1
    10     7     9   am
    11     9    10    1
    12    10    11    2
    13    10    43    1
    14    11    14    1
    15    11    15    1
    16    12    13   ar
    17    12    27   ar
    18    12    43    1
    19    13    14    1
    20    13    30   ar
    21    14    17    2
    22    15    16    1
    23    16    17    1
    24    16    18    1
    25    16    22    1
    26    18    19    1
    27    19    20    1
    28    20    21    1
    29    21    22    1
    30    23    24    1
    31    23    88    1
    32    23    89    1
    33    24    25    1
    34    24    26    1
    35    24    90    1
    36    25    91    1
    37    25    92    1
    38    25    93    1
    39    26    94    1
    40    26    95    1
    41    26    96    1
    42    27    28   ar
    43    28    29   ar
    44    29    30   ar
    45    29    31    1
    46    30    33    1
    47    31    32    1
    48    32    33    1
    49    32    35    1
    50    34    97    1
    51    34    98    1
    52    34    99    1
    53    35    61    1
    54    36    37    1
    55    36    60    1
    56    37    38    1
    57    38    39    1
    58    39    40    1
    59    40    41    1
    60    41    42    1
    61    45   100    1
    62    47   101    1
    63    47   102    1
    64    47   103    1
    65    48   104    1
    66    49   105    1
    67    49   106    1
    68    49   107    1
    69    50   108    1
    70    51    59    1
    71    52   109    1
    72    52   110    1
    73    52   111    1
    74    53    54    1
    75    54    55    2
    76    54    56    1
    77    56   112    1
    78    56   113    1
    79    56   114    1
    80    57   115    1
    81    57   116    1
    82    57   117    1
    83    58   118    1
    84    58   119    1
    85    58   120    1
    86    59   121    1
    87    59   122    1
    88    59   123    1
    89    60    61    2
    90     1    47    1
    91     1    62    1
    92     2    63    1
    93     3    64    1
    94     4    65    1
    95     5     6    1
    96     7     8    2
    97     9    78    1
    98    15    79    1
    99    18    80    1
   100    18    81    1
   101    19    82    1
   102    19    83    1
   103    20    23    1
   104    21    84    1
   105    21    85    1
   106    22    86    1
   107    22    87    1
   108    27    45    1
   109    28    34    1
   110    32    58    1
   111    33    46    2
   112    36    51    1
   113    36    66    1
   114    37    52    1
   115    37    67    1
   116    38    53    1
   117    38    68    1
   118    42    48    1
   119    42    72    1
   120    43    44    2
   121    60    73    1
   122    61    74    1
   123    39    69    1
   124    39    57    1
   125    40    70    1
   126    40    50    1
   127    41    71    1
   128    41    49    1
