@<TRIPOS>MOLECULE
*****
 123 128 0 0 0
SMALL
GASTEIGER

@<TRIPOS>ATOM
     1 C         5.059299   2.038834   0.505209 C.3        1 UNL1     0.0009
     2 C         6.411686   3.001952   -0.31971 C.2        1 UNL1     -0.0787
     3 C         7.685129   3.042728   -1.007262 C.2        1 UNL1     -0.0649
     4 C         8.447678   4.382815   -1.706579 C.2        1 UNL1     -0.0542
     5 C         9.424104   4.805998   -2.641772 C.2        1 UNL1     0.0115
     6 C         10.582779   4.320206   -3.555446 C.3        1 UNL1     -0.0348
     7 C         9.390074   6.322193   -3.168065 C.2        1 UNL1     0.2441
     8 O         10.152557   7.186303   -2.757627 O.2        1 UNL1     -0.2702
     9 N         8.604813   6.5299   -4.315399 N.am        1 UNL1     -0.2772
     10 C         7.301227   6.794877   -3.963586 C.2        1 UNL1     0.1049
     11 C         6.54089   5.744417   -3.713302 C.2        1 UNL1     0.0801
     12 C         5.904581   8.214692   -2.450034 C.ar        1 UNL1     0.0753
     13 C         5.245945   7.007188   -2.054126 C.ar        1 UNL1     0.0305
     14 C         5.454874   5.751217   -2.771018 C.2        1 UNL1     0.0924
     15 N         6.76609   4.439939   -3.946003 N.pl3        1 UNL1     -0.3170
     16 C         5.553846   3.72467   -3.647492 C.3        1 UNL1     0.1275
     17 N         4.861116   4.572246   -2.608519 N.2        1 UNL1     -0.2557
     18 C         4.676408   3.781841   -4.894302 C.3        1 UNL1     0.0016
     19 C         5.462953   3.22157   -6.068625 C.3        1 UNL1     0.0026
     20 N         5.848898   1.851166   -5.761919 N.3        1 UNL1     -0.3018
     21 C         6.644776   1.687231   -4.543694 C.3        1 UNL1     0.0026
     22 C         5.833798   2.252383   -3.376298 C.3        1 UNL1     0.0016
     23 C         6.337233   1.130091   -6.920463 C.3        1 UNL1     0.0012
     24 C         5.18785   0.840856   -7.898736 C.3        1 UNL1     -0.0339
     25 C         5.166076   1.853098   -9.055865 C.3        1 UNL1     -0.0615
     26 C         5.283485   -0.587187   -8.406994 C.3        1 UNL1     -0.0615
     27 C         5.609342   9.431383   -1.839612 C.ar        1 UNL1     0.1347
     28 C         4.649287   9.571549   -0.853357 C.ar        1 UNL1     0.0342
     29 C         4.048709   8.361485   -0.445664 C.ar        1 UNL1     0.1435
     30 C         4.360438   7.129904   -1.022946 C.ar        1 UNL1     0.0774
     31 O         3.017503   8.345451   0.426898 O.3        1 UNL1     -0.4436
     32 C         2.39387   7.067818   0.227879 C.3        1 UNL1     0.3143
     33 C         3.473309   6.189135   -0.371239 C.2        1 UNL1     0.2504
     34 C         4.103061   10.871946   -0.333063 C.3        1 UNL1     -0.0327
     35 O         2.092904   6.534308   1.52327 O.2        1 UNL1     -0.4528
     36 C         -0.992555   4.371096   1.066607 C.3        1 UNL1     0.0854
     37 C         -1.212585   3.139399   0.106382 C.3        1 UNL1     0.0236
     38 C         -1.696516   1.794093   0.832817 C.3        1 UNL1     0.1131
     39 C         -0.907474   1.255034   2.093411 C.3        1 UNL1     0.0200
     40 C         0.760505   1.24171   2.103871 C.3        1 UNL1     0.0661
     41 C         1.756872   0.615679   0.882009 C.3        1 UNL1     0.0091
     42 C         3.419729   1.143922   0.315205 C.3        1 UNL1     0.0661
     43 C         6.84782   8.143885   -3.593513 C.2        1 UNL1     0.2131
     44 O         7.161907   9.108078   -4.26762 O.2        1 UNL1     -0.2851
     45 O         6.3282   10.551373   -2.252289 O.3        1 UNL1     -0.5056
     46 O         3.587457   4.985557   -0.306243 O.2        1 UNL1     -0.2836
     47 C         5.514429   1.566994   1.912407 C.3        1 UNL1     -0.0566
     48 O         3.980658   -0.22884   0.314093 O.3        1 UNL1     -0.3909
     49 C         0.921678   0.382777   -0.357226 C.3        1 UNL1     -0.0577
     50 O         1.268769   2.481386   2.553976 O.3        1 UNL1     -0.3910
     51 O         -1.076078   4.098528   2.447245 O.3        1 UNL1     -0.3753
     52 C         -0.179581   3.124871   -1.067348 C.3        1 UNL1     -0.0564
     53 O         -2.230551   0.759156   -0.113777 O.3        1 UNL1     -0.4608
     54 C         -2.353985   -0.578393   0.15762 C.2        1 UNL1     0.3042
     55 O         -1.714063   -1.503714   -0.340494 O.2        1 UNL1     -0.2512
     56 C         -3.35957   -0.883951   1.231001 C.3        1 UNL1     0.0332
     57 C         -1.656675   1.795988   3.398876 C.3        1 UNL1     -0.0567
     58 C         1.28323   7.282706   -0.826555 C.3        1 UNL1     0.0210
     59 C         -1.468812   5.207586   3.254472 C.3        1 UNL1     0.0372
     60 C         0.277748   5.116461   0.852313 C.2        1 UNL1     -0.0208
     61 C         1.16862   5.577056   1.731485 C.2        1 UNL1     0.0882
     62 H         4.508154   2.975486   0.652296 H        1 UNL1     0.0365
     63 H         6.064293   4.023828   -0.153706 H        1 UNL1     0.0576
     64 H         8.214281   2.128942   -1.286727 H        1 UNL1     0.0615
     65 H         7.895558   5.236349   -1.303931 H        1 UNL1     0.0622
     66 H         -1.799761   5.070654   0.807603 H        1 UNL1     0.0645
     67 H         -2.110887   3.410062   -0.475301 H        1 UNL1     0.0362
     68 H         -2.668886   2.134047   1.220694 H        1 UNL1     0.0741
     69 H         -1.153842   0.211596   2.238148 H        1 UNL1     0.0359
     70 H         0.940364   0.546728   2.946314 H        1 UNL1     0.0600
     71 H         1.889326   -0.41986   1.25224 H        1 UNL1     0.0348
     72 H         3.292956   1.569386   1.321298 H        1 UNL1     0.0602
     73 H         0.360877   5.377243   -0.173519 H        1 UNL1     0.0628
     74 H         1.187173   5.309236   2.788446 H        1 UNL1     0.1022
     75 H         10.699224   3.211824   -3.48499 H        1 UNL1     0.0279
     76 H         10.455066   4.474852   -4.624484 H        1 UNL1     0.0279
     77 H         11.568974   4.66415   -3.21074 H        1 UNL1     0.0279
     78 H         8.602857   5.686837   -4.885766 H        1 UNL1     0.1553
     79 H         7.452109   4.100228   -4.594776 H        1 UNL1     0.1484
     80 H         3.760933   3.20552   -4.713957 H        1 UNL1     0.0317
     81 H         4.363106   4.809894   -5.105488 H        1 UNL1     0.0317
     82 H         6.343728   3.838461   -6.300126 H        1 UNL1     0.0428
     83 H         4.81944   3.273413   -6.947405 H        1 UNL1     0.0428
     84 H         6.853326   0.642429   -4.293281 H        1 UNL1     0.0428
     85 H         7.640247   2.141974   -4.64148 H        1 UNL1     0.0428
     86 H         6.384787   1.996611   -2.490308 H        1 UNL1     0.0317
     87 H         4.897917   1.691496   -3.263918 H        1 UNL1     0.0317
     88 H         7.077992   1.761401   -7.428417 H        1 UNL1     0.0429
     89 H         6.850028   0.204939   -6.62736 H        1 UNL1     0.0429
     90 H         4.234233   0.904281   -7.361329 H        1 UNL1     0.0308
     91 H         6.11645   1.857984   -9.59796 H        1 UNL1     0.0233
     92 H         4.356566   1.625219   -9.75327 H        1 UNL1     0.0233
     93 H         4.991891   2.879166   -8.709919 H        1 UNL1     0.0233
     94 H         4.589833   -0.738465   -9.241139 H        1 UNL1     0.0233
     95 H         6.295558   -0.787757   -8.769545 H        1 UNL1     0.0233
     96 H         5.040907   -1.307648   -7.620825 H        1 UNL1     0.0233
     97 H         3.323253   10.719301   0.407092 H        1 UNL1     0.0280
     98 H         4.874152   11.475804   0.162953 H        1 UNL1     0.0280
     99 H         3.678487   11.454043   -1.167326 H        1 UNL1     0.0280
     100 H         5.79713   11.278456   -2.526034 H        1 UNL1     0.2922
     101 H         4.694166   1.050022   2.409966 H        1 UNL1     0.0236
     102 H         5.921242   2.371927   2.52361 H        1 UNL1     0.0236
     103 H         6.323596   0.81975   1.857011 H        1 UNL1     0.0236
     104 H         4.41936   -0.368905   1.176006 H        1 UNL1     0.2098
     105 H         0.708822   1.28141   -0.930779 H        1 UNL1     0.0234
     106 H         1.290354   -0.405631   -1.013288 H        1 UNL1     0.0234
     107 H         0.0   -0.0   0.0 H        1 UNL1     0.0234
     108 H         1.021158   3.154376   1.890997 H        1 UNL1     0.2098
     109 H         0.858166   3.08674   -0.707709 H        1 UNL1     0.0234
     110 H         -0.350229   2.311511   -1.780838 H        1 UNL1     0.0234
     111 H         -0.249001   4.034358   -1.678871 H        1 UNL1     0.0234
     112 H         -3.393713   -1.962427   1.412853 H        1 UNL1     0.0342
     113 H         -3.154772   -0.338855   2.151203 H        1 UNL1     0.0342
     114 H         -4.349937   -0.571378   0.872342 H        1 UNL1     0.0342
     115 H         -2.702266   1.460743   3.438099 H        1 UNL1     0.0234
     116 H         -1.182089   1.501728   4.337081 H        1 UNL1     0.0234
     117 H         -1.783781   2.892185   3.410666 H        1 UNL1     0.0234
     118 H         0.353306   7.671483   -0.375889 H        1 UNL1     0.0309
     119 H         1.588779   7.943764   -1.643773 H        1 UNL1     0.0309
     120 H         0.963613   6.346515   -1.29719 H        1 UNL1     0.0309
     121 H         -0.690309   5.965782   3.174292 H        1 UNL1     0.0524
     122 H         -2.412222   5.662708   2.909684 H        1 UNL1     0.0524
     123 H         -1.584554   4.897135   4.289034 H        1 UNL1     0.0524
@<TRIPOS>BOND
     1     1     2    1
     2     1    42    1
     3     2     3    2
     4     3     4    1
     5     4     5    2
     6     5     7    1
     7     6    75    1
     8     6    76    1
     9     6    77    1
    10     7     9   am
    11     9    10    1
    12    10    11    2
    13    10    43    1
    14    11    14    1
    15    11    15    1
    16    12    13   ar
    17    12    27   ar
    18    12    43    1
    19    13    14    1
    20    13    30   ar
    21    14    17    2
    22    15    16    1
    23    16    17    1
    24    16    18    1
    25    16    22    1
    26    18    19    1
    27    19    20    1
    28    20    21    1
    29    21    22    1
    30    23    24    1
    31    23    88    1
    32    23    89    1
    33    24    25    1
    34    24    26    1
    35    24    90    1
    36    25    91    1
    37    25    92    1
    38    25    93    1
    39    26    94    1
    40    26    95    1
    41    26    96    1
    42    27    28   ar
    43    28    29   ar
    44    29    30   ar
    45    29    31    1
    46    30    33    1
    47    31    32    1
    48    32    33    1
    49    32    35    1
    50    34    97    1
    51    34    98    1
    52    34    99    1
    53    35    61    1
    54    36    37    1
    55    36    60    1
    56    37    38    1
    57    38    39    1
    58    39    40    1
    59    40    41    1
    60    41    42    1
    61    45   100    1
    62    47   101    1
    63    47   102    1
    64    47   103    1
    65    48   104    1
    66    49   105    1
    67    49   106    1
    68    49   107    1
    69    50   108    1
    70    51    59    1
    71    52   109    1
    72    52   110    1
    73    52   111    1
    74    53    54    1
    75    54    55    2
    76    54    56    1
    77    56   112    1
    78    56   113    1
    79    56   114    1
    80    57   115    1
    81    57   116    1
    82    57   117    1
    83    58   118    1
    84    58   119    1
    85    58   120    1
    86    59   121    1
    87    59   122    1
    88    59   123    1
    89    60    61    2
    90     1    47    1
    91     1    62    1
    92     2    63    1
    93     3    64    1
    94     4    65    1
    95     5     6    1
    96     7     8    2
    97     9    78    1
    98    15    79    1
    99    18    80    1
   100    18    81    1
   101    19    82    1
   102    19    83    1
   103    20    23    1
   104    21    84    1
   105    21    85    1
   106    22    86    1
   107    22    87    1
   108    27    45    1
   109    28    34    1
   110    32    58    1
   111    33    46    2
   112    36    51    1
   113    36    66    1
   114    37    52    1
   115    37    67    1
   116    38    53    1
   117    38    68    1
   118    42    48    1
   119    42    72    1
   120    43    44    2
   121    60    73    1
   122    61    74    1
   123    39    69    1
   124    39    57    1
   125    40    70    1
   126    40    50    1
   127    41    71    1
   128    41    49    1
