@<TRIPOS>MOLECULE
*****
 123 128 0 0 0
SMALL
GASTEIGER

@<TRIPOS>ATOM
     1 C         5.168676   1.74186   0.499988 C.3        1 UNL1     0.0009
     2 C         6.607882   2.546013   -0.347986 C.2        1 UNL1     -0.0787
     3 C         7.890752   2.446084   -1.011542 C.2        1 UNL1     -0.0649
     4 C         8.771136   3.680006   -1.765675 C.2        1 UNL1     -0.0542
     5 C         9.79314   3.971253   -2.702564 C.2        1 UNL1     0.0115
     6 C         10.921959   3.344269   -3.566265 C.3        1 UNL1     -0.0348
     7 C         9.891498   5.454363   -3.308947 C.2        1 UNL1     0.2441
     8 O         10.715845   6.274913   -2.929902 O.2        1 UNL1     -0.2702
     9 N         9.143537   5.662304   -4.480897 N.am        1 UNL1     -0.2772
     10 C         7.860813   6.050718   -4.169322 C.2        1 UNL1     0.1049
     11 C         7.01323   5.080451   -3.878793 C.2        1 UNL1     0.0801
     12 C         6.562198   7.659154   -2.760826 C.ar        1 UNL1     0.0753
     13 C         5.800869   6.532273   -2.31459 C.ar        1 UNL1     0.0305
     14 C         5.917136   5.226397   -2.959742 C.2        1 UNL1     0.0924
     15 N         7.134333   3.751305   -4.037638 N.pl3        1 UNL1     -0.3170
     16 C         5.86314   3.153851   -3.725594 C.3        1 UNL1     0.1275
     17 N         5.226368   4.109969   -2.746777 N.2        1 UNL1     -0.2557
     18 C         5.01251   3.214031   -4.990707 C.3        1 UNL1     0.0016
     19 C         5.768379   2.528891   -6.118021 C.3        1 UNL1     0.0026
     20 N         6.036015   1.150439   -5.731667 N.3        1 UNL1     -0.3018
     21 C         6.797059   0.989056   -4.491048 C.3        1 UNL1     0.0026
     22 C         6.017347   1.680655   -3.371389 C.3        1 UNL1     0.0016
     23 C         6.481296   0.330271   -6.840583 C.3        1 UNL1     0.0012
     24 C         5.327179   0.082319   -7.8246 C.3        1 UNL1     -0.0339
     25 C         5.356052   1.085427   -8.989503 C.3        1 UNL1     -0.0615
     26 C         5.365485   -1.352454   -8.321328 C.3        1 UNL1     -0.0615
     27 C         6.35833   8.927138   -2.221593 C.ar        1 UNL1     0.1347
     28 C         5.398013   9.198005   -1.263222 C.ar        1 UNL1     0.0342
     29 C         4.69415   8.064514   -0.803944 C.ar        1 UNL1     0.1435
     30 C         4.912723   6.782177   -1.308976 C.ar        1 UNL1     0.0774
     31 O         3.651871   8.179507   0.047784 O.3        1 UNL1     -0.4436
     32 C         2.928778   6.947654   -0.095558 C.3        1 UNL1     0.3143
     33 C         3.941636   5.953169   -0.625965 C.2        1 UNL1     0.2504
     34 C         4.952268   10.564723   -0.823344 C.3        1 UNL1     -0.0327
     35 O         2.565335   6.511483   1.220085 O.2        1 UNL1     -0.4528
     36 C         -0.679633   4.583645   0.817948 C.3        1 UNL1     0.0854
     37 C         -0.98512   3.323441   -0.079874 C.3        1 UNL1     0.0236
     38 C         -1.588697   2.063234   0.707093 C.3        1 UNL1     0.1131
     39 C         -0.865847   1.531372   2.009736 C.3        1 UNL1     0.0200
     40 C         0.795077   1.383595   2.053706 C.3        1 UNL1     0.0661
     41 C         1.755377   0.613432   0.886539 C.3        1 UNL1     0.0091
     42 C         3.464398   0.973671   0.325397 C.3        1 UNL1     0.0661
     43 C         7.513845   7.450131   -3.880172 C.2        1 UNL1     0.2131
     44 O         7.916144   8.347643   -4.598062 O.2        1 UNL1     -0.2851
     45 O         7.172758   9.961134   -2.678753 O.3        1 UNL1     -0.5056
     46 O         3.955786   4.74962   -0.495116 O.2        1 UNL1     -0.2836
     47 C         5.56204   1.311909   1.938872 C.3        1 UNL1     -0.0566
     48 O         3.910924   -0.438034   0.407992 O.3        1 UNL1     -0.3909
     49 C         0.922964   0.381912   -0.354824 C.3        1 UNL1     -0.0577
     50 O         1.396252   2.600665   2.447472 O.3        1 UNL1     -0.3910
     51 O         -0.806315   4.394197   2.209167 O.3        1 UNL1     -0.3753
     52 C         0.061053   3.161514   -1.230635 C.3        1 UNL1     -0.0564
     53 O         -2.191185   1.025023   -0.193714 O.3        1 UNL1     -0.4608
     54 C         -2.415818   -0.284652   0.141279 C.2        1 UNL1     0.3042
     55 O         -1.844235   -1.278429   -0.305418 O.2        1 UNL1     -0.2512
     56 C         -3.447246   -0.461327   1.219081 C.3        1 UNL1     0.0332
     57 C         -1.588091   2.201392   3.269741 C.3        1 UNL1     -0.0567
     58 C         1.855736   7.194143   -1.181538 C.3        1 UNL1     0.0210
     59 C         -1.15009   5.567332   2.944993 C.3        1 UNL1     0.0372
     60 C         0.650595   5.210928   0.589536 C.2        1 UNL1     -0.0208
     61 C         1.562655   5.644971   1.460453 C.2        1 UNL1     0.0882
     62 H         4.693936   2.726677   0.586413 H        1 UNL1     0.0365
     63 H         6.342879   3.600175   -0.243176 H        1 UNL1     0.0576
     64 H         8.347473   1.478608   -1.231778 H        1 UNL1     0.0615
     65 H         8.284706   4.596075   -1.419716 H        1 UNL1     0.0622
     66 H         -1.422755   5.331161   0.506442 H        1 UNL1     0.0645
     67 H         -1.849225   3.633943   -0.692632 H        1 UNL1     0.0362
     68 H         -2.535766   2.501403   1.057222 H        1 UNL1     0.0741
     69 H         -1.199059   0.520732   2.204629 H        1 UNL1     0.0359
     70 H         0.904485   0.723158   2.935133 H        1 UNL1     0.0600
     71 H         1.796868   -0.40777   1.313601 H        1 UNL1     0.0348
     72 H         3.357534   1.462067   1.304868 H        1 UNL1     0.0602
     73 H         0.770492   5.407966   -0.446828 H        1 UNL1     0.0628
     74 H         1.543034   5.434385   2.530269 H        1 UNL1     0.1022
     75 H         10.964693   2.238939   -3.41312 H        1 UNL1     0.0279
     76 H         10.810244   3.427156   -4.645023 H        1 UNL1     0.0279
     77 H         11.926896   3.647634   -3.237978 H        1 UNL1     0.0279
     78 H         9.081241   4.792413   -5.005764 H        1 UNL1     0.1553
     79 H         7.800058   3.322385   -4.653894 H        1 UNL1     0.1484
     80 H         4.050244   2.724404   -4.798156 H        1 UNL1     0.0317
     81 H         4.787754   4.251074   -5.262141 H        1 UNL1     0.0317
     82 H         6.700171   3.058924   -6.364476 H        1 UNL1     0.0428
     83 H         5.144794   2.58483   -7.010804 H        1 UNL1     0.0428
     84 H         6.915454   -0.054041   -4.181625 H        1 UNL1     0.0428
     85 H         7.827819   1.355693   -4.593162 H        1 UNL1     0.0428
     86 H         6.531913   1.429644   -2.462432 H        1 UNL1     0.0317
     87 H         5.037051   1.204347   -3.247913 H        1 UNL1     0.0317
     88 H         7.27897   0.870965   -7.366568 H        1 UNL1     0.0429
     89 H         6.912027   -0.616065   -6.488884 H        1 UNL1     0.0429
     90 H         4.373574   0.190342   -7.294334 H        1 UNL1     0.0308
     91 H         6.305816   1.039211   -9.530719 H        1 UNL1     0.0233
     92 H         4.536675   0.892395   -9.6859 H        1 UNL1     0.0233
     93 H         5.232531   2.121486   -8.651626 H        1 UNL1     0.0233
     94 H         4.670429   -1.481139   -9.158092 H        1 UNL1     0.0233
     95 H         6.370122   -1.598103   -8.676747 H        1 UNL1     0.0233
     96 H         5.088843   -2.055877   -7.53099 H        1 UNL1     0.0233
     97 H         4.157627   10.516056   -0.084827 H        1 UNL1     0.0280
     98 H         5.765002   11.133697   -0.35325 H        1 UNL1     0.0280
     99 H         4.580806   11.12971   -1.693919 H        1 UNL1     0.0280
     100 H         6.707276   10.712093   -3.002804 H        1 UNL1     0.2922
     101 H         4.6978   0.879462   2.442593 H        1 UNL1     0.0236
     102 H         6.012937   2.116679   2.518544 H        1 UNL1     0.0236
     103 H         6.317208   0.508221   1.939081 H        1 UNL1     0.0236
     104 H         4.328827   -0.564536   1.282248 H        1 UNL1     0.2098
     105 H         0.712486   1.280995   -0.928549 H        1 UNL1     0.0234
     106 H         1.292387   -0.406645   -1.010286 H        1 UNL1     0.0234
     107 H         0.0   -0.0   0.0 H        1 UNL1     0.0234
     108 H         1.197354   3.259878   1.754907 H        1 UNL1     0.2098
     109 H         1.085098   3.046682   -0.848722 H        1 UNL1     0.0234
     110 H         -0.171367   2.334687   -1.9104 H        1 UNL1     0.0234
     111 H         0.084524   4.044259   -1.883442 H        1 UNL1     0.0234
     112 H         -3.574401   -1.525096   1.441733 H        1 UNL1     0.0342
     113 H         -3.19927   0.099307   2.119103 H        1 UNL1     0.0342
     114 H         -4.406009   -0.079139   0.842425 H        1 UNL1     0.0342
     115 H         -2.652698   1.934401   3.319894 H        1 UNL1     0.0234
     116 H         -1.138503   1.9403   4.229819 H        1 UNL1     0.0234
     117 H         -1.646978   3.301764   3.209272 H        1 UNL1     0.0234
     118 H         0.954631   7.682286   -0.770768 H        1 UNL1     0.0309
     119 H         2.227309   7.781577   -2.027149 H        1 UNL1     0.0309
     120 H         1.466622   6.262681   -1.607068 H        1 UNL1     0.0309
     121 H         -0.346147   6.28997   2.807787 H        1 UNL1     0.0524
     122 H         -2.080673   6.032667   2.579594 H        1 UNL1     0.0524
     123 H         -1.264821   5.329853   3.998812 H        1 UNL1     0.0524
@<TRIPOS>BOND
     1     1     2    1
     2     1    42    1
     3     2     3    2
     4     3     4    1
     5     4     5    2
     6     5     7    1
     7     6    75    1
     8     6    76    1
     9     6    77    1
    10     7     9   am
    11     9    10    1
    12    10    11    2
    13    10    43    1
    14    11    14    1
    15    11    15    1
    16    12    13   ar
    17    12    27   ar
    18    12    43    1
    19    13    14    1
    20    13    30   ar
    21    14    17    2
    22    15    16    1
    23    16    17    1
    24    16    18    1
    25    16    22    1
    26    18    19    1
    27    19    20    1
    28    20    21    1
    29    21    22    1
    30    23    24    1
    31    23    88    1
    32    23    89    1
    33    24    25    1
    34    24    26    1
    35    24    90    1
    36    25    91    1
    37    25    92    1
    38    25    93    1
    39    26    94    1
    40    26    95    1
    41    26    96    1
    42    27    28   ar
    43    28    29   ar
    44    29    30   ar
    45    29    31    1
    46    30    33    1
    47    31    32    1
    48    32    33    1
    49    32    35    1
    50    34    97    1
    51    34    98    1
    52    34    99    1
    53    35    61    1
    54    36    37    1
    55    36    60    1
    56    37    38    1
    57    38    39    1
    58    39    40    1
    59    40    41    1
    60    41    42    1
    61    45   100    1
    62    47   101    1
    63    47   102    1
    64    47   103    1
    65    48   104    1
    66    49   105    1
    67    49   106    1
    68    49   107    1
    69    50   108    1
    70    51    59    1
    71    52   109    1
    72    52   110    1
    73    52   111    1
    74    53    54    1
    75    54    55    2
    76    54    56    1
    77    56   112    1
    78    56   113    1
    79    56   114    1
    80    57   115    1
    81    57   116    1
    82    57   117    1
    83    58   118    1
    84    58   119    1
    85    58   120    1
    86    59   121    1
    87    59   122    1
    88    59   123    1
    89    60    61    2
    90     1    47    1
    91     1    62    1
    92     2    63    1
    93     3    64    1
    94     4    65    1
    95     5     6    1
    96     7     8    2
    97     9    78    1
    98    15    79    1
    99    18    80    1
   100    18    81    1
   101    19    82    1
   102    19    83    1
   103    20    23    1
   104    21    84    1
   105    21    85    1
   106    22    86    1
   107    22    87    1
   108    27    45    1
   109    28    34    1
   110    32    58    1
   111    33    46    2
   112    36    51    1
   113    36    66    1
   114    37    52    1
   115    37    67    1
   116    38    53    1
   117    38    68    1
   118    42    48    1
   119    42    72    1
   120    43    44    2
   121    60    73    1
   122    61    74    1
   123    39    69    1
   124    39    57    1
   125    40    70    1
   126    40    50    1
   127    41    71    1
   128    41    49    1
