@<TRIPOS>MOLECULE
*****
 123 128 0 0 0
SMALL
GASTEIGER

@<TRIPOS>ATOM
     1 C         -0.9661   -2.186228   4.82841 C.3        1 UNL1     0.0009
     2 C         -1.668165   -3.689298   5.656011 C.2        1 UNL1     -0.0787
     3 C         -2.698832   -4.316533   6.456229 C.2        1 UNL1     -0.0649
     4 C         -2.86953   -5.958488   6.832 C.2        1 UNL1     -0.0542
     5 C         -3.770405   -6.963352   7.262989 C.2        1 UNL1     0.0115
     6 C         -5.18973   -7.213891   7.842702 C.3        1 UNL1     -0.0348
     7 C         -3.388934   -8.503943   7.022056 C.2        1 UNL1     0.2441
     8 O         -2.961078   -9.230042   7.908761 O.2        1 UNL1     -0.2702
     9 N         -3.823388   -9.033233   5.794354 N.am        1 UNL1     -0.2772
     10 C         -2.879598   -8.816064   4.816898 C.2        1 UNL1     0.1049
     11 C         -2.903042   -7.628909   4.238679 C.2        1 UNL1     0.0801
     12 C         -0.43631   -9.046448   4.332542 C.ar        1 UNL1     0.0753
     13 C         -0.471395   -7.679778   3.908761 C.ar        1 UNL1     0.0305
     14 C         -1.734107   -6.967887   3.724854 C.2        1 UNL1     0.0924
     15 N         -3.831099   -6.658364   4.295944 N.pl3        1 UNL1     -0.3170
     16 C         -3.460313   -5.639486   3.350079 C.3        1 UNL1     0.1275
     17 N         -1.958276   -5.746288   3.249069 N.2        1 UNL1     -0.2557
     18 C         -4.007418   -6.063925   1.990583 C.3        1 UNL1     0.0016
     19 C         -5.505948   -6.28724   2.117581 C.3        1 UNL1     0.0026
     20 N         -6.126726   -5.049546   2.568998 N.3        1 UNL1     -0.3018
     21 C         -5.621043   -4.528097   3.840511 C.3        1 UNL1     0.0026
     22 C         -4.115085   -4.306792   3.688823 C.3        1 UNL1     0.0016
     23 C         -7.56997   -5.061533   2.436535 C.3        1 UNL1     0.0012
     24 C         -8.220242   -5.679862   3.684162 C.3        1 UNL1     -0.0339
     25 C         -9.74423   -5.476105   3.683538 C.3        1 UNL1     -0.0615
     26 C         -7.85285   -7.149861   3.788597 C.3        1 UNL1     -0.0615
     27 C         0.762151   -9.753975   4.389243 C.ar        1 UNL1     0.1347
     28 C         1.979022   -9.215653   4.010449 C.ar        1 UNL1     0.0342
     29 C         1.927313   -7.854135   3.643353 C.ar        1 UNL1     0.1435
     30 C         0.7395   -7.12229   3.616436 C.ar        1 UNL1     0.0774
     31 O         3.009154   -7.217153   3.144475 O.3        1 UNL1     -0.4436
     32 C         2.474464   -6.068385   2.469706 C.3        1 UNL1     0.3143
     33 C         1.127705   -5.819321   3.118105 C.2        1 UNL1     0.2504
     34 C         3.256385   -9.981423   3.805413 C.3        1 UNL1     -0.0327
     35 O         3.309899   -4.952436   2.801304 O.2        1 UNL1     -0.4528
     36 C         3.161428   -2.617012   -0.187314 C.3        1 UNL1     0.0854
     37 C         1.90615   -1.942786   -0.863493 C.3        1 UNL1     0.0236
     38 C         1.978392   -0.345058   -0.980921 C.3        1 UNL1     0.1131
     39 C         2.329677   0.520917   0.295384 C.3        1 UNL1     0.0200
     40 C         1.634519   0.171561   1.770899 C.3        1 UNL1     0.0661
     41 C         -0.020714   -0.062628   2.058943 C.3        1 UNL1     0.0091
     42 C         -0.876745   -1.14097   3.271294 C.3        1 UNL1     0.0661
     43 C         -1.729986   -9.712499   4.62416 C.2        1 UNL1     0.2131
     44 O         -1.884068   -10.920269   4.607174 O.2        1 UNL1     -0.2851
     45 O         0.715265   -11.06595   4.856105 O.3        1 UNL1     -0.5056
     46 O         0.521899   -4.77603   3.220077 O.2        1 UNL1     -0.2836
     47 C         -0.330705   -1.238353   5.880924 C.3        1 UNL1     -0.0566
     48 O         -1.804393   -0.079687   3.732014 O.3        1 UNL1     -0.3909
     49 C         -0.726087   -0.242536   0.733207 C.3        1 UNL1     -0.0577
     50 O         2.387976   -0.804889   2.46124 O.3        1 UNL1     -0.3910
     51 O         4.102171   -1.735132   0.38253 O.3        1 UNL1     -0.3753
     52 C         0.580535   -2.690851   -0.50559 C.3        1 UNL1     -0.0564
     53 O         0.963781   0.234389   -1.922798 O.3        1 UNL1     -0.4608
     54 C         0.520534   1.531074   -1.914528 C.2        1 UNL1     0.3042
     55 O         0.203843   2.205887   -0.935665 O.2        1 UNL1     -0.2512
     56 C         0.491172   2.165292   -3.276005 C.3        1 UNL1     0.0332
     57 C         3.90198   0.812401   0.262602 C.3        1 UNL1     -0.0567
     58 C         2.249678   -6.490271   0.998988 C.3        1 UNL1     0.0210
     59 C         5.405269   -2.286266   0.567057 C.3        1 UNL1     0.0372
     60 C         2.845235   -3.636262   0.85014 C.2        1 UNL1     -0.0208
     61 C         3.370136   -3.828933   2.060967 C.2        1 UNL1     0.0882
     62 H         -0.152259   -2.806843   4.434441 H        1 UNL1     0.0365
     63 H         -0.882089   -4.419517   5.452704 H        1 UNL1     0.0576
     64 H         -3.591998   -3.771077   6.769023 H        1 UNL1     0.0615
     65 H         -1.904082   -6.390849   6.555491 H        1 UNL1     0.0622
     66 H         3.655645   -3.161693   -1.004088 H        1 UNL1     0.0645
     67 H         1.978135   -2.2442   -1.922987 H        1 UNL1     0.0362
     68 H         2.848992   -0.248785   -1.647486 H        1 UNL1     0.0741
     69 H         2.015442   1.541316   0.120881 H        1 UNL1     0.0359
     70 H         1.84544   1.115332   2.309294 H        1 UNL1     0.0600
     71 H         -0.3187   0.97054   2.324882 H        1 UNL1     0.0348
     72 H         0.151192   -1.022494   3.643618 H        1 UNL1     0.0602
     73 H         2.166851   -4.34641   0.446738 H        1 UNL1     0.0628
     74 H         4.026044   -3.120832   2.568526 H        1 UNL1     0.1022
     75 H         -5.657211   -6.252096   8.164332 H        1 UNL1     0.0279
     76 H         -5.930512   -7.616054   7.155261 H        1 UNL1     0.0279
     77 H         -5.169704   -7.772611   8.789873 H        1 UNL1     0.0279
     78 H         -4.67899   -8.564787   5.503526 H        1 UNL1     0.1553
     79 H         -4.7792   -6.810814   4.587141 H        1 UNL1     0.1484
     80 H         -3.779721   -5.283794   1.254163 H        1 UNL1     0.0317
     81 H         -3.517513   -6.978609   1.639873 H        1 UNL1     0.0317
     82 H         -5.737348   -7.11806   2.800299 H        1 UNL1     0.0428
     83 H         -5.875264   -6.590863   1.137546 H        1 UNL1     0.0428
     84 H         -6.046022   -3.558144   4.116908 H        1 UNL1     0.0428
     85 H         -5.881087   -5.183264   4.683393 H        1 UNL1     0.0428
     86 H         -3.804586   -3.803607   4.585697 H        1 UNL1     0.0317
     87 H         -3.922445   -3.566439   2.902779 H        1 UNL1     0.0317
     88 H         -7.912904   -4.022898   2.342053 H        1 UNL1     0.0429
     89 H         -7.88241   -5.587542   1.525234 H        1 UNL1     0.0429
     90 H         -7.804548   -5.202883   4.579653 H        1 UNL1     0.0308
     91 H         -10.258044   -6.316437   4.159921 H        1 UNL1     0.0233
     92 H         -10.010648   -4.552209   4.202233 H        1 UNL1     0.0233
     93 H         -10.153178   -5.386521   2.669846 H        1 UNL1     0.0233
     94 H         -8.750809   -7.770837   3.699752 H        1 UNL1     0.0233
     95 H         -7.172201   -7.423413   2.977519 H        1 UNL1     0.0233
     96 H         -7.371004   -7.373822   4.744439 H        1 UNL1     0.0233
     97 H         3.672323   -10.33851   4.742811 H        1 UNL1     0.0280
     98 H         3.108667   -10.873599   3.182952 H        1 UNL1     0.0280
     99 H         4.003146   -9.330741   3.32162 H        1 UNL1     0.0280
     100 H         0.546883   -11.711817   4.192685 H        1 UNL1     0.2922
     101 H         0.01427   -0.32656   5.393808 H        1 UNL1     0.0236
     102 H         0.456888   -1.713033   6.465183 H        1 UNL1     0.0236
     103 H         -1.066613   -0.895637   6.627368 H        1 UNL1     0.0236
     104 H         -1.370454   0.391324   4.470131 H        1 UNL1     0.2098
     105 H         -1.067959   -1.256306   0.54032 H        1 UNL1     0.0234
     106 H         -1.529515   0.469395   0.544568 H        1 UNL1     0.0234
     107 H         0.0   0.0   0.0 H        1 UNL1     0.0234
     108 H         1.808458   -1.185852   3.14884 H        1 UNL1     0.2098
     109 H         0.39391   -2.711574   0.577209 H        1 UNL1     0.0234
     110 H         -0.296076   -2.283552   -1.020765 H        1 UNL1     0.0234
     111 H         0.610824   -3.741952   -0.822157 H        1 UNL1     0.0234
     112 H         1.477238   2.573407   -3.517792 H        1 UNL1     0.0342
     113 H         0.156921   1.469998   -4.044566 H        1 UNL1     0.0342
     114 H         -0.221947   3.000727   -3.250022 H        1 UNL1     0.0342
     115 H         4.217739   1.242093   -0.698049 H        1 UNL1     0.0234
     116 H         4.24546   1.484359   1.051615 H        1 UNL1     0.0234
     117 H         4.519675   -0.101354   0.300639 H        1 UNL1     0.0234
     118 H         1.335388   -6.040528   0.573768 H        1 UNL1     0.0309
     119 H         3.099402   -6.255629   0.350054 H        1 UNL1     0.0309
     120 H         2.074847   -7.566461   0.892422 H        1 UNL1     0.0309
     121 H         5.468949   -2.645464   1.593838 H        1 UNL1     0.0524
     122 H         5.593988   -3.145713   -0.097603 H        1 UNL1     0.0524
     123 H         6.16271   -1.528582   0.387356 H        1 UNL1     0.0524
@<TRIPOS>BOND
     1     1     2    1
     2     1    42    1
     3     2     3    2
     4     3     4    1
     5     4     5    2
     6     5     7    1
     7     6    75    1
     8     6    76    1
     9     6    77    1
    10     7     9   am
    11     9    10    1
    12    10    11    2
    13    10    43    1
    14    11    14    1
    15    11    15    1
    16    12    13   ar
    17    12    27   ar
    18    12    43    1
    19    13    14    1
    20    13    30   ar
    21    14    17    2
    22    15    16    1
    23    16    17    1
    24    16    18    1
    25    16    22    1
    26    18    19    1
    27    19    20    1
    28    20    21    1
    29    21    22    1
    30    23    24    1
    31    23    88    1
    32    23    89    1
    33    24    25    1
    34    24    26    1
    35    24    90    1
    36    25    91    1
    37    25    92    1
    38    25    93    1
    39    26    94    1
    40    26    95    1
    41    26    96    1
    42    27    28   ar
    43    28    29   ar
    44    29    30   ar
    45    29    31    1
    46    30    33    1
    47    31    32    1
    48    32    33    1
    49    32    35    1
    50    34    97    1
    51    34    98    1
    52    34    99    1
    53    35    61    1
    54    36    37    1
    55    36    60    1
    56    37    38    1
    57    38    39    1
    58    39    40    1
    59    40    41    1
    60    41    42    1
    61    45   100    1
    62    47   101    1
    63    47   102    1
    64    47   103    1
    65    48   104    1
    66    49   105    1
    67    49   106    1
    68    49   107    1
    69    50   108    1
    70    51    59    1
    71    52   109    1
    72    52   110    1
    73    52   111    1
    74    53    54    1
    75    54    55    2
    76    54    56    1
    77    56   112    1
    78    56   113    1
    79    56   114    1
    80    57   115    1
    81    57   116    1
    82    57   117    1
    83    58   118    1
    84    58   119    1
    85    58   120    1
    86    59   121    1
    87    59   122    1
    88    59   123    1
    89    60    61    2
    90     1    47    1
    91     1    62    1
    92     2    63    1
    93     3    64    1
    94     4    65    1
    95     5     6    1
    96     7     8    2
    97     9    78    1
    98    15    79    1
    99    18    80    1
   100    18    81    1
   101    19    82    1
   102    19    83    1
   103    20    23    1
   104    21    84    1
   105    21    85    1
   106    22    86    1
   107    22    87    1
   108    27    45    1
   109    28    34    1
   110    32    58    1
   111    33    46    2
   112    36    51    1
   113    36    66    1
   114    37    52    1
   115    37    67    1
   116    38    53    1
   117    38    68    1
   118    42    48    1
   119    42    72    1
   120    43    44    2
   121    60    73    1
   122    61    74    1
   123    39    69    1
   124    39    57    1
   125    40    70    1
   126    40    50    1
   127    41    71    1
   128    41    49    1
