@<TRIPOS>MOLECULE
*****
 123 128 0 0 0
SMALL
GASTEIGER

@<TRIPOS>ATOM
     1 C         4.401904   2.436025   -1.552653 C.3        1 UNL1     0.0009
     2 C         5.594501   2.46236   -2.971827 C.2        1 UNL1     -0.0787
     3 C         6.919736   2.223235   -3.503446 C.2        1 UNL1     -0.0649
     4 C         7.433793   2.347557   -5.111752 C.2        1 UNL1     -0.0542
     5 C         8.425431   1.961173   -6.046866 C.2        1 UNL1     0.0115
     6 C         9.815671   1.284337   -6.196697 C.3        1 UNL1     -0.0348
     7 C         8.106507   2.089255   -7.614945 C.2        1 UNL1     0.2441
     8 O         8.53828   2.998895   -8.309677 O.2        1 UNL1     -0.2702
     9 N         7.517008   0.950493   -8.191021 N.am        1 UNL1     -0.2772
     10 C         6.147193   1.007698   -8.074169 C.2        1 UNL1     0.1049
     11 C         5.644024   0.604549   -6.921557 C.2        1 UNL1     0.0801
     12 C         4.185798   2.514692   -8.44731 C.ar        1 UNL1     0.0753
     13 C         3.792354   2.205008   -7.10645 C.ar        1 UNL1     0.0305
     14 C         4.438466   1.137091   -6.34675 C.2        1 UNL1     0.0924
     15 N         6.22957   -0.053397   -5.906288 N.pl3        1 UNL1     -0.3170
     16 C         5.203586   -0.405255   -4.960875 C.3        1 UNL1     0.1275
     17 N         4.142028   0.651675   -5.144493 N.2        1 UNL1     -0.2557
     18 C         4.582604   -1.715918   -5.43442 C.3        1 UNL1     0.0016
     19 C         5.685506   -2.752437   -5.578733 C.3        1 UNL1     0.0026
     20 N         6.342111   -2.919405   -4.28954 N.3        1 UNL1     -0.3018
     21 C         6.917732   -1.69827   -3.722214 C.3        1 UNL1     0.0026
     22 C         5.791642   -0.672572   -3.581643 C.3        1 UNL1     0.0016
     23 C         7.199311   -4.087063   -4.240285 C.3        1 UNL1     0.0012
     24 C         8.377782   -3.850095   -3.282784 C.3        1 UNL1     -0.0339
     25 C         9.650579   -4.561441   -3.770668 C.3        1 UNL1     -0.0615
     26 C         8.606416   -2.360122   -3.097073 C.3        1 UNL1     -0.0615
     27 C         3.486983   3.45013   -9.206738 C.ar        1 UNL1     0.1347
     28 C         2.359464   4.108332   -8.749002 C.ar        1 UNL1     0.0342
     29 C         2.019691   3.82383   -7.40931 C.ar        1 UNL1     0.1435
     30 C         2.731892   2.916082   -6.624464 C.ar        1 UNL1     0.0774
     31 O         0.884691   4.301169   -6.853496 O.3        1 UNL1     -0.4436
     32 C         0.650658   3.451523   -5.720269 C.3        1 UNL1     0.3143
     33 C         2.007378   2.873729   -5.371447 C.2        1 UNL1     0.2504
     34 C         1.417442   4.929233   -9.584954 C.3        1 UNL1     -0.0327
     35 O         0.263096   4.294747   -4.628472 O.2        1 UNL1     -0.4528
     36 C         -2.040074   2.196845   -2.459993 C.3        1 UNL1     0.0854
     37 C         -1.763377   0.807925   -1.76583 C.3        1 UNL1     0.0236
     38 C         -2.016283   0.781427   -0.182453 C.3        1 UNL1     0.1131
     39 C         -1.36024   1.889658   0.736078 C.3        1 UNL1     0.0200
     40 C         0.226334   2.349155   0.503516 C.3        1 UNL1     0.0661
     41 C         1.553892   1.302269   0.364846 C.3        1 UNL1     0.0091
     42 C         3.1042   1.467996   -0.60184 C.3        1 UNL1     0.0661
     43 C         5.308499   1.741395   -9.033666 C.2        1 UNL1     0.2131
     44 O         5.486611   1.616837   -10.231789 O.2        1 UNL1     -0.2851
     45 O         3.962794   3.726981   -10.486736 O.3        1 UNL1     -0.5056
     46 O         2.407663   2.486425   -4.296449 O.2        1 UNL1     -0.2836
     47 C         4.696937   3.608196   -0.578512 C.3        1 UNL1     -0.0566
     48 O         3.983806   1.077903   0.526538 O.3        1 UNL1     -0.3909
     49 C         1.044858   -0.104808   0.144591 C.3        1 UNL1     -0.0577
     50 O         0.314533   3.372523   -0.467392 O.3        1 UNL1     -0.3910
     51 O         -2.302369   3.27732   -1.593272 O.3        1 UNL1     -0.3753
     52 C         -0.564055   0.054848   -2.42874 C.3        1 UNL1     -0.0564
     53 O         -2.090118   -0.60357   0.390834 O.3        1 UNL1     -0.4608
     54 C         -1.123737   -1.198803   1.158777 C.2        1 UNL1     0.3042
     55 O         -1.255392   -1.682202   2.282534 O.2        1 UNL1     -0.2512
     56 C         0.212252   -1.292313   0.478259 C.3        1 UNL1     0.0332
     57 C         -2.446687   3.043772   0.950153 C.3        1 UNL1     -0.0567
     58 C         -0.266804   2.308208   -6.212838 C.3        1 UNL1     0.0210
     59 C         -2.493165   4.533633   -2.242226 C.3        1 UNL1     0.0372
     60 C         -0.981862   2.650319   -3.403236 C.2        1 UNL1     -0.0208
     61 C         -0.411722   3.846743   -3.552414 C.2        1 UNL1     0.0882
     62 H         3.615012   2.784536   -2.232398 H        1 UNL1     0.0365
     63 H         4.97629   2.916785   -3.748861 H        1 UNL1     0.0576
     64 H         7.70409   1.761639   -2.899439 H        1 UNL1     0.0615
     65 H         6.620356   2.887121   -5.604373 H        1 UNL1     0.0622
     66 H         -2.93646   2.025563   -3.07253 H        1 UNL1     0.0645
     67 H         -2.579302   0.159296   -2.129296 H        1 UNL1     0.0362
     68 H         -3.096827   0.990352   -0.165246 H        1 UNL1     0.0741
     69 H         -1.357502   1.537092   1.758867 H        1 UNL1     0.0359
     70 H         0.419022   2.862633   1.464907 H        1 UNL1     0.0600
     71 H         1.873535   1.254075   1.42431 H        1 UNL1     0.0348
     72 H         2.692973   2.48391   -0.511684 H        1 UNL1     0.0602
     73 H         -0.781648   1.876283   -4.101829 H        1 UNL1     0.0628
     74 H         -0.519203   4.673074   -2.84895 H        1 UNL1     0.1022
     75 H         9.976712   0.9484   -7.24943 H        1 UNL1     0.0279
     76 H         10.683873   1.914247   -6.0164 H        1 UNL1     0.0279
     77 H         9.88566   0.331427   -5.651937 H        1 UNL1     0.0279
     78 H         7.831826   0.116621   -7.699468 H        1 UNL1     0.1553
     79 H         7.085488   -0.569273   -5.996895 H        1 UNL1     0.1484
     80 H         3.825132   -2.03547   -4.708549 H        1 UNL1     0.0317
     81 H         4.063992   -1.580579   -6.389604 H        1 UNL1     0.0317
     82 H         6.409091   -2.471206   -6.357993 H        1 UNL1     0.0428
     83 H         5.22108   -3.678508   -5.918956 H        1 UNL1     0.0428
     84 H         7.33387   -1.834432   -2.719168 H        1 UNL1     0.0428
     85 H         7.76685   -1.332487   -4.315947 H        1 UNL1     0.0428
     86 H         6.218276   0.153987   -3.044269 H        1 UNL1     0.0317
     87 H         5.023274   -1.051212   -2.89656 H        1 UNL1     0.0317
     88 H         6.60636   -4.930361   -3.862724 H        1 UNL1     0.0429
     89 H         7.55245   -4.365021   -5.241687 H        1 UNL1     0.0429
     90 H         8.118631   -4.239261   -2.291016 H        1 UNL1     0.0308
     91 H         10.143439   -5.098757   -2.954897 H        1 UNL1     0.0233
     92 H         9.416535   -5.264597   -4.573416 H        1 UNL1     0.0233
     93 H         10.388232   -3.861951   -4.182273 H        1 UNL1     0.0233
     94 H         9.539284   -2.057455   -3.584909 H        1 UNL1     0.0233
     95 H         7.788449   -1.796698   -3.554725 H        1 UNL1     0.0233
     96 H         8.668464   -2.094887   -2.037937 H        1 UNL1     0.0233
     97 H         1.320711   5.944429   -9.21179 H        1 UNL1     0.0280
     98 H         1.75999   5.022274   -10.623829 H        1 UNL1     0.0280
     99 H         0.41861   4.462956   -9.580951 H        1 UNL1     0.0280
     100 H         3.952677   2.992876   -11.075472 H        1 UNL1     0.2922
     101 H         3.759661   4.028853   -0.214896 H        1 UNL1     0.0236
     102 H         5.347357   4.369302   -1.008229 H        1 UNL1     0.0236
     103 H         5.222695   3.269474   0.329805 H        1 UNL1     0.0236
     104 H         4.685409   1.754052   0.601004 H        1 UNL1     0.2098
     105 H         1.454373   -0.598285   -0.733241 H        1 UNL1     0.0234
     106 H         1.119724   -0.757494   1.01426 H        1 UNL1     0.0234
     107 H         -0.0   0.0   0.0 H        1 UNL1     0.0234
     108 H         1.208067   3.760765   -0.399315 H        1 UNL1     0.2098
     109 H         0.37769   0.21188   -1.884525 H        1 UNL1     0.0234
     110 H         -0.7434   -1.019048   -2.548435 H        1 UNL1     0.0234
     111 H         -0.379026   0.409452   -3.451465 H        1 UNL1     0.0234
     112 H         0.991344   -1.507625   1.215824 H        1 UNL1     0.0342
     113 H         0.214355   -2.033142   -0.319871 H        1 UNL1     0.0342
     114 H         0.436427   -0.316035   0.026827 H        1 UNL1     0.0342
     115 H         -2.256922   3.618279   1.867278 H        1 UNL1     0.0234
     116 H         -2.507635   3.75489   0.123929 H        1 UNL1     0.0234
     117 H         -3.463033   2.660479   1.145264 H        1 UNL1     0.0234
     118 H         -0.181547   1.4068   -5.581014 H        1 UNL1     0.0309
     119 H         -1.319548   2.600591   -6.279497 H        1 UNL1     0.0309
     120 H         0.010897   1.945819   -7.208661 H        1 UNL1     0.0309
     121 H         -2.865971   5.236202   -1.497398 H        1 UNL1     0.0524
     122 H         -1.551866   4.944199   -2.64401 H        1 UNL1     0.0524
     123 H         -3.20852   4.432781   -3.053516 H        1 UNL1     0.0524
@<TRIPOS>BOND
     1     1     2    1
     2     1    42    1
     3     2     3    2
     4     3     4    1
     5     4     5    2
     6     5     7    1
     7     6    75    1
     8     6    76    1
     9     6    77    1
    10     7     9   am
    11     9    10    1
    12    10    11    2
    13    10    43    1
    14    11    14    1
    15    11    15    1
    16    12    13   ar
    17    12    27   ar
    18    12    43    1
    19    13    14    1
    20    13    30   ar
    21    14    17    2
    22    15    16    1
    23    16    17    1
    24    16    18    1
    25    16    22    1
    26    18    19    1
    27    19    20    1
    28    20    21    1
    29    21    22    1
    30    23    24    1
    31    23    88    1
    32    23    89    1
    33    24    25    1
    34    24    26    1
    35    24    90    1
    36    25    91    1
    37    25    92    1
    38    25    93    1
    39    26    94    1
    40    26    95    1
    41    26    96    1
    42    27    28   ar
    43    28    29   ar
    44    29    30   ar
    45    29    31    1
    46    30    33    1
    47    31    32    1
    48    32    33    1
    49    32    35    1
    50    34    97    1
    51    34    98    1
    52    34    99    1
    53    35    61    1
    54    36    37    1
    55    36    60    1
    56    37    38    1
    57    38    39    1
    58    39    40    1
    59    40    41    1
    60    41    42    1
    61    45   100    1
    62    47   101    1
    63    47   102    1
    64    47   103    1
    65    48   104    1
    66    49   105    1
    67    49   106    1
    68    49   107    1
    69    50   108    1
    70    51    59    1
    71    52   109    1
    72    52   110    1
    73    52   111    1
    74    53    54    1
    75    54    55    2
    76    54    56    1
    77    56   112    1
    78    56   113    1
    79    56   114    1
    80    57   115    1
    81    57   116    1
    82    57   117    1
    83    58   118    1
    84    58   119    1
    85    58   120    1
    86    59   121    1
    87    59   122    1
    88    59   123    1
    89    60    61    2
    90     1    47    1
    91     1    62    1
    92     2    63    1
    93     3    64    1
    94     4    65    1
    95     5     6    1
    96     7     8    2
    97     9    78    1
    98    15    79    1
    99    18    80    1
   100    18    81    1
   101    19    82    1
   102    19    83    1
   103    20    23    1
   104    21    84    1
   105    21    85    1
   106    22    86    1
   107    22    87    1
   108    27    45    1
   109    28    34    1
   110    32    58    1
   111    33    46    2
   112    36    51    1
   113    36    66    1
   114    37    52    1
   115    37    67    1
   116    38    53    1
   117    38    68    1
   118    42    48    1
   119    42    72    1
   120    43    44    2
   121    60    73    1
   122    61    74    1
   123    39    69    1
   124    39    57    1
   125    40    70    1
   126    40    50    1
   127    41    71    1
   128    41    49    1
