@<TRIPOS>MOLECULE
*****
 123 128 0 0 0
SMALL
GASTEIGER

@<TRIPOS>ATOM
     1 C         5.163022   1.76544   0.475079 C.3        1 UNL1     0.0009
     2 C         6.593813   2.577822   -0.379268 C.2        1 UNL1     -0.0787
     3 C         7.873536   2.485083   -1.049905 C.2        1 UNL1     -0.0649
     4 C         8.743998   3.724427   -1.806662 C.2        1 UNL1     -0.0542
     5 C         9.759539   4.022086   -2.74855 C.2        1 UNL1     0.0115
     6 C         10.886622   3.401906   -3.619402 C.3        1 UNL1     -0.0348
     7 C         9.847617   5.506666   -3.352912 C.2        1 UNL1     0.2441
     8 O         10.670117   6.330465   -2.976915 O.2        1 UNL1     -0.2702
     9 N         9.092361   5.713045   -4.520451 N.am        1 UNL1     -0.2772
     10 C         7.80952   6.094861   -4.201296 C.2        1 UNL1     0.1049
     11 C         6.968109   5.120107   -3.907861 C.2        1 UNL1     0.0801
     12 C         6.510956   7.694757   -2.783059 C.ar        1 UNL1     0.0753
     13 C         5.757377   6.563535   -2.334654 C.ar        1 UNL1     0.0305
     14 C         5.87632   5.259315   -2.982661 C.2        1 UNL1     0.0924
     15 N         7.094625   3.791818   -4.069635 N.pl3        1 UNL1     -0.3170
     16 C         5.827971   3.187833   -3.751762 C.3        1 UNL1     0.1275
     17 N         5.19199   4.139275   -2.767886 N.2        1 UNL1     -0.2557
     18 C         4.970243   3.246124   -5.012162 C.3        1 UNL1     0.0016
     19 C         5.723235   2.566472   -6.14471 C.3        1 UNL1     0.0026
     20 N         5.99946   1.18865   -5.762169 N.3        1 UNL1     -0.3018
     21 C         6.767949   1.028774   -4.525952 C.3        1 UNL1     0.0026
     22 C         5.991042   1.714787   -3.400919 C.3        1 UNL1     0.0016
     23 C         6.442609   0.372472   -6.874875 C.3        1 UNL1     0.0012
     24 C         5.284375   0.120726   -7.853075 C.3        1 UNL1     -0.0339
     25 C         5.302218   1.125924   -9.016395 C.3        1 UNL1     -0.0615
     26 C         5.326769   -1.31301   -8.35246 C.3        1 UNL1     -0.0615
     27 C         6.304021   8.96085   -2.240561 C.ar        1 UNL1     0.1347
     28 C         5.347629   9.225553   -1.276561 C.ar        1 UNL1     0.0342
     29 C         4.651616   8.087971   -0.815435 C.ar        1 UNL1     0.1435
     30 C         4.873508   6.807537   -1.323836 C.ar        1 UNL1     0.0774
     31 O         3.613423   8.196595   0.042099 O.3        1 UNL1     -0.4436
     32 C         2.895389   6.96158   -0.09945 C.3        1 UNL1     0.3143
     33 C         3.91005   5.972794   -0.637018 C.2        1 UNL1     0.2504
     34 C         4.89782   10.589403   -0.831942 C.3        1 UNL1     -0.0327
     35 O         2.541123   6.521475   1.217385 O.2        1 UNL1     -0.4528
     36 C         -0.696833   4.578992   0.829457 C.3        1 UNL1     0.0854
     37 C         -1.001215   3.318874   -0.068862 C.3        1 UNL1     0.0236
     38 C         -1.594576   2.0545   0.719189 C.3        1 UNL1     0.1131
     39 C         -0.862195   1.523864   2.017 C.3        1 UNL1     0.0200
     40 C         0.799621   1.383871   2.051755 C.3        1 UNL1     0.0661
     41 C         1.757227   0.62023   0.878105 C.3        1 UNL1     0.0091
     42 C         3.46147   0.989495   0.308369 C.3        1 UNL1     0.0661
     43 C         7.457517   7.492127   -3.907879 C.2        1 UNL1     0.2131
     44 O         7.851691   8.392742   -4.62639 O.2        1 UNL1     -0.2851
     45 O         7.111077   9.999457   -2.700336 O.3        1 UNL1     -0.5056
     46 O         3.930588   4.769106   -0.50831 O.2        1 UNL1     -0.2836
     47 C         5.56618   1.334926   1.911081 C.3        1 UNL1     -0.0566
     48 O         3.915096   -0.420219   0.386134 O.3        1 UNL1     -0.3909
     49 C         0.91922   0.386872   -0.359143 C.3        1 UNL1     -0.0577
     50 O         1.397164   2.603104   2.444357 O.3        1 UNL1     -0.3910
     51 O         -0.815101   4.386598   2.221013 O.3        1 UNL1     -0.3753
     52 C         0.039478   3.163841   -1.225526 C.3        1 UNL1     -0.0564
     53 O         -2.197014   1.014973   -0.180132 O.3        1 UNL1     -0.4608
     54 C         -2.413649   -0.296313   0.153823 C.2        1 UNL1     0.3042
     55 O         -1.839674   -1.286607   -0.297519 O.2        1 UNL1     -0.2512
     56 C         -3.438583   -0.4797   1.236687 C.3        1 UNL1     0.0332
     57 C         -1.580775   2.188333   3.282029 C.3        1 UNL1     -0.0567
     58 C         1.815344   7.204824   -1.179201 C.3        1 UNL1     0.0210
     59 C         -1.160429   5.55685   2.960693 C.3        1 UNL1     0.0372
     60 C         0.629165   5.212944   0.594947 C.2        1 UNL1     -0.0208
     61 C         1.543858   5.649825   1.461674 C.2        1 UNL1     0.0882
     62 H         4.684112   2.747854   0.565752 H        1 UNL1     0.0365
     63 H         6.324406   3.630541   -0.271223 H        1 UNL1     0.0576
     64 H         8.333622   1.520151   -1.27426 H        1 UNL1     0.0615
     65 H         8.255126   4.637599   -1.456514 H        1 UNL1     0.0622
     66 H         -1.445148   5.32351   0.523247 H        1 UNL1     0.0645
     67 H         -1.870074   3.62632   -0.676416 H        1 UNL1     0.0362
     68 H         -2.541797   2.487593   1.075173 H        1 UNL1     0.0741
     69 H         -1.189575   0.511331   2.211956 H        1 UNL1     0.0359
     70 H         0.916907   0.722471   2.931446 H        1 UNL1     0.0600
     71 H         1.805844   -0.401484   1.303187 H        1 UNL1     0.0348
     72 H         3.357596   1.475726   1.289239 H        1 UNL1     0.0602
     73 H         0.742529   5.412296   -0.441709 H        1 UNL1     0.0628
     74 H         1.531012   5.437343   2.531218 H        1 UNL1     0.1022
     75 H         10.9354   2.296534   -3.468384 H        1 UNL1     0.0279
     76 H         10.76869   3.486085   -4.697398 H        1 UNL1     0.0279
     77 H         11.891875   3.709466   -3.296022 H        1 UNL1     0.0279
     78 H         9.031337   4.843756   -5.046465 H        1 UNL1     0.1553
     79 H         7.759027   3.367093   -4.690208 H        1 UNL1     0.1484
     80 H         4.011354   2.751628   -4.815262 H        1 UNL1     0.0317
     81 H         4.739131   4.28255   -5.280601 H        1 UNL1     0.0317
     82 H         6.65117   3.101321   -6.39528 H        1 UNL1     0.0428
     83 H         5.094579   2.620968   -7.034019 H        1 UNL1     0.0428
     84 H         6.892937   -0.014272   -4.21896 H        1 UNL1     0.0428
     85 H         7.7964   1.400455   -4.632997 H        1 UNL1     0.0428
     86 H         6.511691   1.464678   -2.495183 H        1 UNL1     0.0317
     87 H         5.013687   1.23364   -3.272973 H        1 UNL1     0.0317
     88 H         7.234868   0.917819   -7.404229 H        1 UNL1     0.0429
     89 H         6.879697   -0.572409   -6.527128 H        1 UNL1     0.0429
     90 H         4.33315   0.223341   -7.317487 H        1 UNL1     0.0308
     91 H         6.249252   1.085114   -9.562806 H        1 UNL1     0.0233
     92 H         4.480011   0.930195   -9.708691 H        1 UNL1     0.0233
     93 H         5.175635   2.160815   -8.676081 H        1 UNL1     0.0233
     94 H         4.627818   -1.443568   -9.185682 H        1 UNL1     0.0233
     95 H         6.33062   -1.553304   -8.713715 H        1 UNL1     0.0233
     96 H         5.057726   -2.019067   -7.561848 H        1 UNL1     0.0233
     97 H         4.107419   10.535731   -0.089234 H        1 UNL1     0.0280
     98 H         5.710388   11.16142   -0.365266 H        1 UNL1     0.0280
     99 H         4.518996   11.154096   -1.699531 H        1 UNL1     0.0280
     100 H         6.640311   10.748752   -3.020584 H        1 UNL1     0.2922
     101 H         4.706726   0.897546   2.418716 H        1 UNL1     0.0236
     102 H         6.016399   2.14084   2.489691 H        1 UNL1     0.0236
     103 H         6.325124   0.53482   1.905839 H        1 UNL1     0.0236
     104 H         4.338309   -0.54622   1.257906 H        1 UNL1     0.2098
     105 H         0.701404   1.285917   -0.930182 H        1 UNL1     0.0234
     106 H         1.288814   -0.398822   -1.01794 H        1 UNL1     0.0234
     107 H         0.0   -0.0   0.0 H        1 UNL1     0.0234
     108 H         1.193807   3.261815   1.75261 H        1 UNL1     0.2098
     109 H         1.066102   3.053209   -0.849341 H        1 UNL1     0.0234
     110 H         -0.192706   2.337073   -1.905444 H        1 UNL1     0.0234
     111 H         0.055254   4.047788   -1.876936 H        1 UNL1     0.0234
     112 H         -3.559501   -1.544431   1.458208 H        1 UNL1     0.0342
     113 H         -3.188588   0.08062   2.136347 H        1 UNL1     0.0342
     114 H         -4.40111   -0.101471   0.865677 H        1 UNL1     0.0342
     115 H         -2.643823   1.916224   3.337468 H        1 UNL1     0.0234
     116 H         -1.124778   1.927749   4.239219 H        1 UNL1     0.0234
     117 H         -1.645181   3.288514   3.223765 H        1 UNL1     0.0234
     118 H         0.914177   7.688005   -0.762739 H        1 UNL1     0.0309
     119 H         2.179565   7.795436   -2.025797 H        1 UNL1     0.0309
     120 H         1.428338   6.272252   -1.604221 H        1 UNL1     0.0309
     121 H         -0.359155   6.282343   2.822943 H        1 UNL1     0.0524
     122 H         -2.093516   6.020148   2.599111 H        1 UNL1     0.0524
     123 H         -1.271375   5.316443   4.014253 H        1 UNL1     0.0524
@<TRIPOS>BOND
     1     1     2    1
     2     1    42    1
     3     2     3    2
     4     3     4    1
     5     4     5    2
     6     5     7    1
     7     6    75    1
     8     6    76    1
     9     6    77    1
    10     7     9   am
    11     9    10    1
    12    10    11    2
    13    10    43    1
    14    11    14    1
    15    11    15    1
    16    12    13   ar
    17    12    27   ar
    18    12    43    1
    19    13    14    1
    20    13    30   ar
    21    14    17    2
    22    15    16    1
    23    16    17    1
    24    16    18    1
    25    16    22    1
    26    18    19    1
    27    19    20    1
    28    20    21    1
    29    21    22    1
    30    23    24    1
    31    23    88    1
    32    23    89    1
    33    24    25    1
    34    24    26    1
    35    24    90    1
    36    25    91    1
    37    25    92    1
    38    25    93    1
    39    26    94    1
    40    26    95    1
    41    26    96    1
    42    27    28   ar
    43    28    29   ar
    44    29    30   ar
    45    29    31    1
    46    30    33    1
    47    31    32    1
    48    32    33    1
    49    32    35    1
    50    34    97    1
    51    34    98    1
    52    34    99    1
    53    35    61    1
    54    36    37    1
    55    36    60    1
    56    37    38    1
    57    38    39    1
    58    39    40    1
    59    40    41    1
    60    41    42    1
    61    45   100    1
    62    47   101    1
    63    47   102    1
    64    47   103    1
    65    48   104    1
    66    49   105    1
    67    49   106    1
    68    49   107    1
    69    50   108    1
    70    51    59    1
    71    52   109    1
    72    52   110    1
    73    52   111    1
    74    53    54    1
    75    54    55    2
    76    54    56    1
    77    56   112    1
    78    56   113    1
    79    56   114    1
    80    57   115    1
    81    57   116    1
    82    57   117    1
    83    58   118    1
    84    58   119    1
    85    58   120    1
    86    59   121    1
    87    59   122    1
    88    59   123    1
    89    60    61    2
    90     1    47    1
    91     1    62    1
    92     2    63    1
    93     3    64    1
    94     4    65    1
    95     5     6    1
    96     7     8    2
    97     9    78    1
    98    15    79    1
    99    18    80    1
   100    18    81    1
   101    19    82    1
   102    19    83    1
   103    20    23    1
   104    21    84    1
   105    21    85    1
   106    22    86    1
   107    22    87    1
   108    27    45    1
   109    28    34    1
   110    32    58    1
   111    33    46    2
   112    36    51    1
   113    36    66    1
   114    37    52    1
   115    37    67    1
   116    38    53    1
   117    38    68    1
   118    42    48    1
   119    42    72    1
   120    43    44    2
   121    60    73    1
   122    61    74    1
   123    39    69    1
   124    39    57    1
   125    40    70    1
   126    40    50    1
   127    41    71    1
   128    41    49    1
