@<TRIPOS>MOLECULE
*****
 123 128 0 0 0
SMALL
GASTEIGER

@<TRIPOS>ATOM
     1 C         5.168817   1.743789   0.491735 C.3        1 UNL1     0.0009
     2 C         6.606323   2.548599   -0.358497 C.2        1 UNL1     -0.0787
     3 C         7.888142   2.449246   -1.024166 C.2        1 UNL1     -0.0649
     4 C         8.766815   3.683599   -1.779589 C.2        1 UNL1     -0.0542
     5 C         9.787171   3.975354   -2.718114 C.2        1 UNL1     0.0115
     6 C         10.914815   3.348909   -3.583741 C.3        1 UNL1     -0.0348
     7 C         9.883965   5.458575   -3.324476 C.2        1 UNL1     0.2441
     8 O         10.708616   6.279396   -2.946681 O.2        1 UNL1     -0.2702
     9 N         9.134005   5.666371   -4.495173 N.am        1 UNL1     -0.2772
     10 C         7.851644   6.054253   -4.18145 C.2        1 UNL1     0.1049
     11 C         7.004912   5.083624   -3.889652 C.2        1 UNL1     0.0801
     12 C         6.554719   7.662017   -2.770631 C.ar        1 UNL1     0.0753
     13 C         5.794555   6.534789   -2.323287 C.ar        1 UNL1     0.0305
     14 C         5.910269   5.229036   -2.968789 C.2        1 UNL1     0.0924
     15 N         7.126265   3.754544   -4.048859 N.pl3        1 UNL1     -0.3170
     16 C         5.855815   3.156564   -3.734806 C.3        1 UNL1     0.1275
     17 N         5.220279   4.112317   -2.75483 N.2        1 UNL1     -0.2557
     18 C         5.003091   3.21657   -4.998516 C.3        1 UNL1     0.0016
     19 C         5.757375   2.531859   -6.127151 C.3        1 UNL1     0.0026
     20 N         6.026175   1.153463   -5.741406 N.3        1 UNL1     -0.3018
     21 C         6.789312   0.992221   -4.502054 C.3        1 UNL1     0.0026
     22 C         6.011169   1.683384   -3.381035 C.3        1 UNL1     0.0016
     23 C         6.469954   0.333602   -6.85115 C.3        1 UNL1     0.0012
     24 C         5.314322   0.085326   -7.833306 C.3        1 UNL1     -0.0339
     25 C         5.340901   1.088587   -8.998131 C.3        1 UNL1     -0.0615
     26 C         5.352366   -1.349372   -8.330272 C.3        1 UNL1     -0.0615
     27 C         6.351246   8.929857   -2.230909 C.ar        1 UNL1     0.1347
     28 C         5.392397   9.200237   -1.270934 C.ar        1 UNL1     0.0342
     29 C         4.689723   8.066418   -0.810642 C.ar        1 UNL1     0.1435
     30 C         4.907962   6.784227   -1.316189 C.ar        1 UNL1     0.0774
     31 O         3.648797   8.180906   0.042806 O.3        1 UNL1     -0.4436
     32 C         2.925944   6.948792   -0.099502 C.3        1 UNL1     0.3143
     33 C         3.938314   5.954763   -0.63169 C.2        1 UNL1     0.2504
     34 C         4.946847   10.56673   -0.830158 C.3        1 UNL1     -0.0327
     35 O         2.564824   6.512322   1.216681 O.2        1 UNL1     -0.4528
     36 C         -0.680056   4.583283   0.819623 C.3        1 UNL1     0.0854
     37 C         -0.986529   3.323071   -0.077853 C.3        1 UNL1     0.0236
     38 C         -1.588331   2.062536   0.709948 C.3        1 UNL1     0.1131
     39 C         -0.863143   1.530793   2.01134 C.3        1 UNL1     0.0200
     40 C         0.797907   1.38365   2.052571 C.3        1 UNL1     0.0661
     41 C         1.756591   0.613999   0.883737 C.3        1 UNL1     0.0091
     42 C         3.464551   0.974965   0.319841 C.3        1 UNL1     0.0661
     43 C         7.504612   7.453498   -3.89156 C.2        1 UNL1     0.2131
     44 O         7.905389   8.351252   -4.609998 O.2        1 UNL1     -0.2851
     45 O         7.164527   9.964222   -2.689276 O.3        1 UNL1     -0.5056
     46 O         3.953142   4.751203   -0.501012 O.2        1 UNL1     -0.2836
     47 C         5.564704   1.313813   1.92992 C.3        1 UNL1     -0.0566
     48 O         3.911755   -0.436578   0.401531 O.3        1 UNL1     -0.3909
     49 C         0.922235   0.382311   -0.356288 C.3        1 UNL1     -0.0577
     50 O         1.399259   2.600904   2.445501 O.3        1 UNL1     -0.3910
     51 O         -0.804386   4.393617   2.211025 O.3        1 UNL1     -0.3753
     52 C         0.057821   3.161688   -1.230345 C.3        1 UNL1     -0.0564
     53 O         -2.191894   1.024203   -0.189999 O.3        1 UNL1     -0.4608
     54 C         -2.415474   -0.2856   0.145201 C.2        1 UNL1     0.3042
     55 O         -1.844241   -1.279102   -0.302554 O.2        1 UNL1     -0.2512
     56 C         -3.445066   -0.462803   1.224669 C.3        1 UNL1     0.0332
     57 C         -1.58358   2.200381   3.272608 C.3        1 UNL1     -0.0567
     58 C         1.85103   7.195001   -1.183693 C.3        1 UNL1     0.0210
     59 C         -1.147407   5.566529   2.947557 C.3        1 UNL1     0.0372
     60 C         0.649554   5.211106   0.589109 C.2        1 UNL1     -0.0208
     61 C         1.562873   5.645394   1.458585 C.2        1 UNL1     0.0882
     62 H         4.693841   2.728412   0.579058 H        1 UNL1     0.0365
     63 H         6.341086   3.602646   -0.253124 H        1 UNL1     0.0576
     64 H         8.344874   1.481973   -1.245268 H        1 UNL1     0.0615
     65 H         8.2806   4.599438   -1.432721 H        1 UNL1     0.0622
     66 H         -1.423975   5.330551   0.509427 H        1 UNL1     0.0645
     67 H         -1.851755   3.633315   -0.689156 H        1 UNL1     0.0362
     68 H         -2.534993   2.500298   1.061682 H        1 UNL1     0.0741
     69 H         -1.195647   0.520001   2.206654 H        1 UNL1     0.0359
     70 H         0.909014   0.723147   2.933736 H        1 UNL1     0.0600
     71 H         1.799174   -0.407239   1.310606 H        1 UNL1     0.0348
     72 H         3.359104   1.4632   1.299546 H        1 UNL1     0.0602
     73 H         0.767678   5.408317   -0.447425 H        1 UNL1     0.0628
     74 H         1.545085   5.43467   2.528405 H        1 UNL1     0.1022
     75 H         10.958225   2.243577   -3.430801 H        1 UNL1     0.0279
     76 H         10.801301   3.431885   -4.662304 H        1 UNL1     0.0279
     77 H         11.920172   3.652621   -3.257063 H        1 UNL1     0.0279
     78 H         9.071184   4.79652   -5.020044 H        1 UNL1     0.1553
     79 H         7.791144   3.325956   -4.666257 H        1 UNL1     0.1484
     80 H         4.04133   2.726549   -4.80445 H        1 UNL1     0.0317
     81 H         4.777492   4.25356   -5.269454 H        1 UNL1     0.0317
     82 H         6.688559   3.062281   -6.375067 H        1 UNL1     0.0428
     83 H         5.132308   2.587667   -7.018905 H        1 UNL1     0.0428
     84 H         6.908615   -0.050868   -4.192954 H        1 UNL1     0.0428
     85 H         7.819762   1.359267   -4.605811 H        1 UNL1     0.0428
     86 H         6.52732   1.43246   -2.472953 H        1 UNL1     0.0317
     87 H         5.03126   1.206683   -3.256012 H        1 UNL1     0.0317
     88 H         7.266557   0.874667   -7.378375 H        1 UNL1     0.0429
     89 H         6.901625   -0.612611   -6.500273 H        1 UNL1     0.0429
     90 H         4.361546   0.192917   -7.301465 H        1 UNL1     0.0308
     91 H         6.289795   1.042803   -9.540908 H        1 UNL1     0.0233
     92 H         4.520459   0.895325   -9.693209 H        1 UNL1     0.0233
     93 H         5.217535   2.124557   -8.659925 H        1 UNL1     0.0233
     94 H         4.655991   -1.478223   -9.165912 H        1 UNL1     0.0233
     95 H         6.356515   -1.594591   -8.687366 H        1 UNL1     0.0233
     96 H         5.07729   -2.052998   -7.539568 H        1 UNL1     0.0233
     97 H         4.153435   10.517666   -0.090346 H        1 UNL1     0.0280
     98 H         5.760131   11.135959   -0.361326 H        1 UNL1     0.0280
     99 H         4.573742   11.13168   -1.700054 H        1 UNL1     0.0280
     100 H         6.698225   10.715042   -3.012472 H        1 UNL1     0.2922
     101 H         4.701456   0.880972   2.435003 H        1 UNL1     0.0236
     102 H         6.01624   2.118687   2.508951 H        1 UNL1     0.0236
     103 H         6.32018   0.510416   1.928793 H        1 UNL1     0.0236
     104 H         4.331139   -0.563026   1.275086 H        1 UNL1     0.2098
     105 H         0.710471   1.281383   -0.929557 H        1 UNL1     0.0234
     106 H         1.290886   -0.406024   -1.012452 H        1 UNL1     0.0234
     107 H         0.0   -0.0   0.0 H        1 UNL1     0.0234
     108 H         1.198973   3.260124   1.753343 H        1 UNL1     0.2098
     109 H         1.082534   3.047203   -0.850124 H        1 UNL1     0.0234
     110 H         -0.175394   2.334854   -1.90983 H        1 UNL1     0.0234
     111 H         0.079883   4.044521   -1.883081 H        1 UNL1     0.0234
     112 H         -3.571447   -1.526648   1.447399 H        1 UNL1     0.0342
     113 H         -3.195832   0.097816   2.124353 H        1 UNL1     0.0342
     114 H         -4.404593   -0.080938   0.849632 H        1 UNL1     0.0342
     115 H         -2.648   1.932974   3.324472 H        1 UNL1     0.0234
     116 H         -1.132319   1.939344   4.231916 H        1 UNL1     0.0234
     117 H         -1.642989   3.300737   3.212371 H        1 UNL1     0.0234
     118 H         0.950411   7.682747   -0.771387 H        1 UNL1     0.0309
     119 H         2.220991   7.782681   -2.029839 H        1 UNL1     0.0309
     120 H         1.461578   6.263442   -1.608699 H        1 UNL1     0.0309
     121 H         -0.342478   6.288321   2.811683 H        1 UNL1     0.0524
     122 H         -2.077108   6.033293   2.581736 H        1 UNL1     0.0524
     123 H         -1.263354   5.328281   4.001069 H        1 UNL1     0.0524
@<TRIPOS>BOND
     1     1     2    1
     2     1    42    1
     3     2     3    2
     4     3     4    1
     5     4     5    2
     6     5     7    1
     7     6    75    1
     8     6    76    1
     9     6    77    1
    10     7     9   am
    11     9    10    1
    12    10    11    2
    13    10    43    1
    14    11    14    1
    15    11    15    1
    16    12    13   ar
    17    12    27   ar
    18    12    43    1
    19    13    14    1
    20    13    30   ar
    21    14    17    2
    22    15    16    1
    23    16    17    1
    24    16    18    1
    25    16    22    1
    26    18    19    1
    27    19    20    1
    28    20    21    1
    29    21    22    1
    30    23    24    1
    31    23    88    1
    32    23    89    1
    33    24    25    1
    34    24    26    1
    35    24    90    1
    36    25    91    1
    37    25    92    1
    38    25    93    1
    39    26    94    1
    40    26    95    1
    41    26    96    1
    42    27    28   ar
    43    28    29   ar
    44    29    30   ar
    45    29    31    1
    46    30    33    1
    47    31    32    1
    48    32    33    1
    49    32    35    1
    50    34    97    1
    51    34    98    1
    52    34    99    1
    53    35    61    1
    54    36    37    1
    55    36    60    1
    56    37    38    1
    57    38    39    1
    58    39    40    1
    59    40    41    1
    60    41    42    1
    61    45   100    1
    62    47   101    1
    63    47   102    1
    64    47   103    1
    65    48   104    1
    66    49   105    1
    67    49   106    1
    68    49   107    1
    69    50   108    1
    70    51    59    1
    71    52   109    1
    72    52   110    1
    73    52   111    1
    74    53    54    1
    75    54    55    2
    76    54    56    1
    77    56   112    1
    78    56   113    1
    79    56   114    1
    80    57   115    1
    81    57   116    1
    82    57   117    1
    83    58   118    1
    84    58   119    1
    85    58   120    1
    86    59   121    1
    87    59   122    1
    88    59   123    1
    89    60    61    2
    90     1    47    1
    91     1    62    1
    92     2    63    1
    93     3    64    1
    94     4    65    1
    95     5     6    1
    96     7     8    2
    97     9    78    1
    98    15    79    1
    99    18    80    1
   100    18    81    1
   101    19    82    1
   102    19    83    1
   103    20    23    1
   104    21    84    1
   105    21    85    1
   106    22    86    1
   107    22    87    1
   108    27    45    1
   109    28    34    1
   110    32    58    1
   111    33    46    2
   112    36    51    1
   113    36    66    1
   114    37    52    1
   115    37    67    1
   116    38    53    1
   117    38    68    1
   118    42    48    1
   119    42    72    1
   120    43    44    2
   121    60    73    1
   122    61    74    1
   123    39    69    1
   124    39    57    1
   125    40    70    1
   126    40    50    1
   127    41    71    1
   128    41    49    1
