@<TRIPOS>MOLECULE
*****
 123 128 0 0 0
SMALL
GASTEIGER

@<TRIPOS>ATOM
     1 C         5.166993   1.758269   0.458195 C.3        1 UNL1     0.0009
     2 C         6.596418   2.567833   -0.4011 C.2        1 UNL1     -0.0787
     3 C         7.873998   2.472655   -1.075471 C.2        1 UNL1     -0.0649
     4 C         8.744012   3.710084   -1.835866 C.2        1 UNL1     -0.0542
     5 C         9.757174   4.005462   -2.781028 C.2        1 UNL1     0.0115
     6 C         10.880747   3.382899   -3.654712 C.3        1 UNL1     -0.0348
     7 C         9.845622   5.489403   -3.386905 C.2        1 UNL1     0.2441
     8 O         10.670445   6.312311   -3.014057 O.2        1 UNL1     -0.2702
     9 N         9.08719   5.695908   -4.552361 N.am        1 UNL1     -0.2772
     10 C         7.805868   6.079872   -4.229706 C.2        1 UNL1     0.1049
     11 C         6.96391   5.106599   -3.932941 C.2        1 UNL1     0.0801
     12 C         6.513881   7.682861   -2.808957 C.ar        1 UNL1     0.0753
     13 C         5.759988   6.553123   -2.357352 C.ar        1 UNL1     0.0305
     14 C         5.87509   5.248186   -3.004609 C.2        1 UNL1     0.0924
     15 N         7.087998   3.777991   -4.093969 N.pl3        1 UNL1     -0.3170
     16 C         5.821415   3.176131   -3.771811 C.3        1 UNL1     0.1275
     17 N         5.189765   4.129331   -2.786848 N.2        1 UNL1     -0.2557
     18 C         4.960019   3.23462   -5.029697 C.3        1 UNL1     0.0016
     19 C         5.708635   2.552912   -6.16391 C.3        1 UNL1     0.0026
     20 N         5.983982   1.17501   -5.78103 N.3        1 UNL1     -0.3018
     21 C         6.75592   1.015047   -4.546974 C.3        1 UNL1     0.0026
     22 C         5.983377   1.703143   -3.420211 C.3        1 UNL1     0.0016
     23 C         6.422616   0.357247   -6.894362 C.3        1 UNL1     0.0012
     24 C         5.261104   0.106377   -7.868892 C.3        1 UNL1     -0.0339
     25 C         5.326819   1.053937   -9.077969 C.3        1 UNL1     -0.0615
     26 C         5.248317   -1.349902   -8.300017 C.3        1 UNL1     -0.0615
     27 C         6.310418   8.949712   -2.266915 C.ar        1 UNL1     0.1347
     28 C         5.357293   9.216628   -1.300292 C.ar        1 UNL1     0.0342
     29 C         4.660994   8.080455   -0.836132 C.ar        1 UNL1     0.1435
     30 C         4.879495   6.79927   -1.34411 C.ar        1 UNL1     0.0774
     31 O         3.625524   8.191322   0.024401 O.3        1 UNL1     -0.4436
     32 C         2.905264   6.957242   -0.113963 C.3        1 UNL1     0.3143
     33 C         3.916869   5.966518   -0.653718 C.2        1 UNL1     0.2504
     34 C         4.910809   10.581509   -0.855487 C.3        1 UNL1     -0.0327
     35 O         2.554283   6.518764   1.204294 O.2        1 UNL1     -0.4528
     36 C         -0.687655   4.580704   0.827661 C.3        1 UNL1     0.0854
     37 C         -0.996558   3.320279   -0.068682 C.3        1 UNL1     0.0236
     38 C         -1.589416   2.057439   0.722203 C.3        1 UNL1     0.1131
     39 C         -0.853945   1.526822   2.018273 C.3        1 UNL1     0.0200
     40 C         0.807761   1.384421   2.048192 C.3        1 UNL1     0.0661
     41 C         1.760743   0.618391   0.872339 C.3        1 UNL1     0.0091
     42 C         3.463819   0.984678   0.297213 C.3        1 UNL1     0.0661
     43 C         7.456786   7.477899   -3.936422 C.2        1 UNL1     0.2131
     44 O         7.850133   8.377331   -4.656866 O.2        1 UNL1     -0.2851
     45 O         7.117619   9.986748   -2.729971 O.3        1 UNL1     -0.5056
     46 O         3.93603   4.76291   -0.524054 O.2        1 UNL1     -0.2836
     47 C         5.573802   1.328371   1.893352 C.3        1 UNL1     -0.0566
     48 O         3.915611   -0.425633   0.374817 O.3        1 UNL1     -0.3909
     49 C         0.91871   0.385222   -0.362209 C.3        1 UNL1     -0.0577
     50 O         1.408255   2.603107   2.43798 O.3        1 UNL1     -0.3910
     51 O         -0.802053   4.389654   2.219725 O.3        1 UNL1     -0.3753
     52 C         0.040453   3.162748   -1.228312 C.3        1 UNL1     -0.0564
     53 O         -2.196054   1.018041   -0.17444 O.3        1 UNL1     -0.4608
     54 C         -2.425691   -0.289434   0.165717 C.2        1 UNL1     0.3042
     55 O         -1.85661   -1.287013   -0.275668 O.2        1 UNL1     -0.2512
     56 C         -3.4597   -0.458057   1.242334 C.3        1 UNL1     0.0332
     57 C         -1.567776   2.193406   3.284876 C.3        1 UNL1     -0.0567
     58 C         1.822361   7.201162   -1.190696 C.3        1 UNL1     0.0210
     59 C         -1.112529   5.567455   2.962865 C.3        1 UNL1     0.0372
     60 C         0.638564   5.212515   0.588663 C.2        1 UNL1     -0.0208
     61 C         1.556477   5.648783   1.45229 C.2        1 UNL1     0.0882
     62 H         4.689795   2.741459   0.549464 H        1 UNL1     0.0365
     63 H         6.328876   3.621036   -0.293142 H        1 UNL1     0.0576
     64 H         8.332001   1.506861   -1.30038 H        1 UNL1     0.0615
     65 H         8.257523   4.624266   -1.485034 H        1 UNL1     0.0622
     66 H         -1.435789   5.32606   0.523054 H        1 UNL1     0.0645
     67 H         -1.866774   3.628488   -0.673903 H        1 UNL1     0.0362
     68 H         -2.534936   2.49222   1.080643 H        1 UNL1     0.0741
     69 H         -1.182223   0.514934   2.215059 H        1 UNL1     0.0359
     70 H         0.926701   0.72359   2.928088 H        1 UNL1     0.0600
     71 H         1.809133   -0.403035   1.298137 H        1 UNL1     0.0348
     72 H         3.363582   1.471886   1.277977 H        1 UNL1     0.0602
     73 H         0.749128   5.410829   -0.448494 H        1 UNL1     0.0628
     74 H         1.546509   5.437219   2.522047 H        1 UNL1     0.1022
     75 H         10.909607   2.274175   -3.524591 H        1 UNL1     0.0279
     76 H         10.773122   3.489637   -4.731788 H        1 UNL1     0.0279
     77 H         11.888357   3.667054   -3.317549 H        1 UNL1     0.0279
     78 H         9.023326   4.826267   -5.077455 H        1 UNL1     0.1553
     79 H         7.749925   3.351771   -4.71616 H        1 UNL1     0.1484
     80 H         4.000998   2.741695   -4.829521 H        1 UNL1     0.0317
     81 H         4.729625   4.271157   -5.298322 H        1 UNL1     0.0317
     82 H         6.6366   3.08619   -6.417697 H        1 UNL1     0.0428
     83 H         5.07741   2.607583   -7.051387 H        1 UNL1     0.0428
     84 H         6.880296   -0.027923   -4.239475 H        1 UNL1     0.0428
     85 H         7.78459   1.385129   -4.657399 H        1 UNL1     0.0428
     86 H         6.506357   1.453033   -2.51582 H        1 UNL1     0.0317
     87 H         5.005704   1.223537   -3.288945 H        1 UNL1     0.0317
     88 H         7.214091   0.900987   -7.426536 H        1 UNL1     0.0429
     89 H         6.859356   -0.587981   -6.54712 H        1 UNL1     0.0429
     90 H         4.31158   0.272397   -7.346344 H        1 UNL1     0.0308
     91 H         6.278488   0.955924   -9.608837 H        1 UNL1     0.0233
     92 H         4.506934   0.852736   -9.77145 H        1 UNL1     0.0233
     93 H         5.230999   2.107465   -8.788603 H        1 UNL1     0.0233
     94 H         4.550897   -1.491161   -9.132776 H        1 UNL1     0.0233
     95 H         6.244143   -1.647652   -8.640073 H        1 UNL1     0.0233
     96 H         4.944533   -2.006258   -7.479725 H        1 UNL1     0.0233
     97 H         4.11621   10.529747   -0.117135 H        1 UNL1     0.0280
     98 H         5.723241   11.149231   -0.383363 H        1 UNL1     0.0280
     99 H         4.539019   11.149423   -1.724015 H        1 UNL1     0.0280
     100 H         6.647236   10.74139   -3.037994 H        1 UNL1     0.2922
     101 H         4.71209   0.904085   2.408221 H        1 UNL1     0.0236
     102 H         6.037997   2.130755   2.465791 H        1 UNL1     0.0236
     103 H         6.322394   0.518583   1.886554 H        1 UNL1     0.0236
     104 H         4.335875   -0.553108   1.247799 H        1 UNL1     0.2098
     105 H         0.700508   1.284105   -0.933355 H        1 UNL1     0.0234
     106 H         1.285188   -0.401566   -1.02144 H        1 UNL1     0.0234
     107 H         0.0   -0.0   0.0 H        1 UNL1     0.0234
     108 H         1.218777   3.256906   1.737685 H        1 UNL1     0.2098
     109 H         1.069454   3.063322   -0.855506 H        1 UNL1     0.0234
     110 H         -0.188241   2.328144   -1.899787 H        1 UNL1     0.0234
     111 H         0.046754   4.040883   -1.887694 H        1 UNL1     0.0234
     112 H         -3.579344   -1.519337   1.480486 H        1 UNL1     0.0342
     113 H         -3.21947   0.117951   2.134717 H        1 UNL1     0.0342
     114 H         -4.420022   -0.089136   0.856532 H        1 UNL1     0.0342
     115 H         -2.639241   1.953226   3.32314 H        1 UNL1     0.0234
     116 H         -1.13201   1.904193   4.243267 H        1 UNL1     0.0234
     117 H         -1.597863   3.295814   3.243258 H        1 UNL1     0.0234
     118 H         0.92253   7.684603   -0.771655 H        1 UNL1     0.0309
     119 H         2.184494   7.791824   -2.03815 H        1 UNL1     0.0309
     120 H         1.433823   6.26884   -1.614867 H        1 UNL1     0.0309
     121 H         -0.276538   6.257448   2.851575 H        1 UNL1     0.0524
     122 H         -2.014963   6.075469   2.583958 H        1 UNL1     0.0524
     123 H         -1.259552   5.322695   4.010992 H        1 UNL1     0.0524
@<TRIPOS>BOND
     1     1     2    1
     2     1    42    1
     3     2     3    2
     4     3     4    1
     5     4     5    2
     6     5     7    1
     7     6    75    1
     8     6    76    1
     9     6    77    1
    10     7     9   am
    11     9    10    1
    12    10    11    2
    13    10    43    1
    14    11    14    1
    15    11    15    1
    16    12    13   ar
    17    12    27   ar
    18    12    43    1
    19    13    14    1
    20    13    30   ar
    21    14    17    2
    22    15    16    1
    23    16    17    1
    24    16    18    1
    25    16    22    1
    26    18    19    1
    27    19    20    1
    28    20    21    1
    29    21    22    1
    30    23    24    1
    31    23    88    1
    32    23    89    1
    33    24    25    1
    34    24    26    1
    35    24    90    1
    36    25    91    1
    37    25    92    1
    38    25    93    1
    39    26    94    1
    40    26    95    1
    41    26    96    1
    42    27    28   ar
    43    28    29   ar
    44    29    30   ar
    45    29    31    1
    46    30    33    1
    47    31    32    1
    48    32    33    1
    49    32    35    1
    50    34    97    1
    51    34    98    1
    52    34    99    1
    53    35    61    1
    54    36    37    1
    55    36    60    1
    56    37    38    1
    57    38    39    1
    58    39    40    1
    59    40    41    1
    60    41    42    1
    61    45   100    1
    62    47   101    1
    63    47   102    1
    64    47   103    1
    65    48   104    1
    66    49   105    1
    67    49   106    1
    68    49   107    1
    69    50   108    1
    70    51    59    1
    71    52   109    1
    72    52   110    1
    73    52   111    1
    74    53    54    1
    75    54    55    2
    76    54    56    1
    77    56   112    1
    78    56   113    1
    79    56   114    1
    80    57   115    1
    81    57   116    1
    82    57   117    1
    83    58   118    1
    84    58   119    1
    85    58   120    1
    86    59   121    1
    87    59   122    1
    88    59   123    1
    89    60    61    2
    90     1    47    1
    91     1    62    1
    92     2    63    1
    93     3    64    1
    94     4    65    1
    95     5     6    1
    96     7     8    2
    97     9    78    1
    98    15    79    1
    99    18    80    1
   100    18    81    1
   101    19    82    1
   102    19    83    1
   103    20    23    1
   104    21    84    1
   105    21    85    1
   106    22    86    1
   107    22    87    1
   108    27    45    1
   109    28    34    1
   110    32    58    1
   111    33    46    2
   112    36    51    1
   113    36    66    1
   114    37    52    1
   115    37    67    1
   116    38    53    1
   117    38    68    1
   118    42    48    1
   119    42    72    1
   120    43    44    2
   121    60    73    1
   122    61    74    1
   123    39    69    1
   124    39    57    1
   125    40    70    1
   126    40    50    1
   127    41    71    1
   128    41    49    1
