@<TRIPOS>MOLECULE
*****
 123 128 0 0 0
SMALL
GASTEIGER

@<TRIPOS>ATOM
     1 C         4.01423   -1.684156   2.641547 C.3        1 UNL1     0.0009
     2 C         5.116602   -1.268597   4.073024 C.2        1 UNL1     -0.0787
     3 C         6.254218   -0.557475   4.617249 C.2        1 UNL1     -0.0649
     4 C         6.759964   -0.483245   6.231271 C.2        1 UNL1     -0.0542
     5 C         7.528725   0.241757   7.174912 C.2        1 UNL1     0.0115
     6 C         8.569573   1.383661   7.336199 C.3        1 UNL1     -0.0348
     7 C         7.262102   0.005254   8.740149 C.2        1 UNL1     0.2441
     8 O         7.991168   -0.680917   9.443113 O.2        1 UNL1     -0.2702
     9 N         6.287803   0.846364   9.305327 N.am        1 UNL1     -0.2772
     10 C         5.037043   0.28794   9.174618 C.2        1 UNL1     0.1049
     11 C         4.433513   0.476945   8.0152 C.2        1 UNL1     0.0801
     12 C         3.765699   -1.836195   9.533884 C.ar        1 UNL1     0.0753
     13 C         3.300716   -1.693616   8.187752 C.ar        1 UNL1     0.0305
     14 C         3.515824   -0.46277   7.430257 C.2        1 UNL1     0.0924
     15 N         4.746375   1.304357   7.003254 N.pl3        1 UNL1     -0.3170
     16 C         3.673533   1.252878   6.045854 C.3        1 UNL1     0.1275
     17 N         3.074648   -0.121053   6.222979 N.2        1 UNL1     -0.2557
     18 C         2.607712   2.242144   6.50746 C.3        1 UNL1     0.0016
     19 C         3.248903   3.61239   6.658757 C.3        1 UNL1     0.0026
     20 N         3.811936   4.009618   5.375702 N.3        1 UNL1     -0.3018
     21 C         4.80362   3.086826   4.819477 C.3        1 UNL1     0.0026
     22 C         4.136845   1.718086   4.671638 C.3        1 UNL1     0.0016
     23 C         4.178549   5.411111   5.330361 C.3        1 UNL1     0.0012
     24 C         4.330194   5.881377   3.87516 C.3        1 UNL1     -0.0339
     25 C         4.529977   7.403732   3.79405 C.3        1 UNL1     -0.0615
     26 C         5.466361   5.131796   3.201341 C.3        1 UNL1     -0.0615
     27 C         3.452749   -2.963341   10.290007 C.ar        1 UNL1     0.1347
     28 C         2.652636   -3.991059   9.82346 C.ar        1 UNL1     0.0342
     29 C         2.246812   -3.85209   8.479155 C.ar        1 UNL1     0.1435
     30 C         2.582698   -2.745747   7.69787 C.ar        1 UNL1     0.0774
     31 O         1.374131   -4.714468   7.913698 O.3        1 UNL1     -0.4436
     32 C         0.855856   -4.011177   6.774555 C.3        1 UNL1     0.3143
     33 C         1.907624   -2.973752   6.437292 C.2        1 UNL1     0.2504
     34 C         2.070547   -5.101439   10.653116 C.3        1 UNL1     -0.0327
     35 O         0.818779   -4.938021   5.682384 O.2        1 UNL1     -0.4528
     36 C         -2.071488   -3.837776   3.481495 C.3        1 UNL1     0.0854
     37 C         -2.318846   -2.444806   2.784378 C.3        1 UNL1     0.0236
     38 C         -2.546067   -2.513639   1.198384 C.3        1 UNL1     0.1131
     39 C         -1.51737   -3.301866   0.291329 C.3        1 UNL1     0.0200
     40 C         0.124132   -3.143751   0.542147 C.3        1 UNL1     0.0661
     41 C         0.970367   -1.681009   0.690071 C.3        1 UNL1     0.0091
     42 C         2.46165   -1.263129   1.673357 C.3        1 UNL1     0.0661
     43 C         4.517455   -0.703259   10.128509 C.2        1 UNL1     0.2131
     44 O         4.623733   -0.521651   11.327867 O.2        1 UNL1     -0.2851
     45 O         3.982855   -3.045028   11.57599 O.3        1 UNL1     -0.5056
     46 O         2.148778   -2.466238   5.364852 O.2        1 UNL1     -0.2836
     47 C         4.731593   -2.664974   1.675438 C.3        1 UNL1     -0.0566
     48 O         3.147868   -0.576237   0.552464 O.3        1 UNL1     -0.3909
     49 C         -0.024147   -0.560864   0.899148 C.3        1 UNL1     -0.0577
     50 O         0.572741   -4.062323   1.51821 O.3        1 UNL1     -0.3910
     51 O         -1.90714   -4.938915   2.616675 O.3        1 UNL1     -0.3753
     52 C         -1.48927   -1.302395   3.456426 C.3        1 UNL1     -0.0564
     53 O         -3.119121   -1.253591   0.618543 O.3        1 UNL1     -0.4608
     54 C         -3.088245   -0.901845   -0.705561 C.2        1 UNL1     0.3042
     55 O         -2.473754   0.034189   -1.215542 O.2        1 UNL1     -0.2512
     56 C         -3.865344   -1.831898   -1.593159 C.3        1 UNL1     0.0332
     57 C         -2.099121   -4.775354   0.070938 C.3        1 UNL1     -0.0567
     58 C         -0.424014   -3.28681   7.252835 C.3        1 UNL1     0.0210
     59 C         -2.82232   -4.983876   1.522925 C.3        1 UNL1     0.0372
     60 C         -0.93119   -3.868861   4.437485 C.2        1 UNL1     -0.0208
     61 C         0.038317   -4.770625   4.597559 C.2        1 UNL1     0.0882
     62 H         3.403839   -2.298252   3.314615 H        1 UNL1     0.0365
     63 H         4.700968   -1.918913   4.845557 H        1 UNL1     0.0576
     64 H         6.819702   0.160805   4.019412 H        1 UNL1     0.0615
     65 H         6.197445   -1.284735   6.717758 H        1 UNL1     0.0622
     66 H         -2.974605   -4.009121   4.084045 H        1 UNL1     0.0645
     67 H         -3.320462   -2.142812   3.136691 H        1 UNL1     0.0362
     68 H         -3.47312   -3.10638   1.170932 H        1 UNL1     0.0741
     69 H         -1.63348   -2.973264   -0.732852 H        1 UNL1     0.0359
     70 H         0.503295   -3.550065   -0.415039 H        1 UNL1     0.0600
     71 H         1.261464   -1.518438   -0.366239 H        1 UNL1     0.0348
     72 H         2.455126   -2.3591   1.583249 H        1 UNL1     0.0602
     73 H         -1.038349   -3.075474   5.134838 H        1 UNL1     0.0628
     74 H         0.251006   -5.578418   3.89651 H        1 UNL1     0.1022
     75 H         8.992963   1.385101   8.36953 H        1 UNL1     0.0279
     76 H         9.461774   1.31779   6.717566 H        1 UNL1     0.0279
     77 H         8.11466   2.383824   7.28691 H        1 UNL1     0.0279
     78 H         6.27833   1.737503   8.813536 H        1 UNL1     0.1553
     79 H         5.350627   2.099565   7.100497 H        1 UNL1     0.1484
     80 H         1.793908   2.259698   5.772489 H        1 UNL1     0.0317
     81 H         2.164986   1.925173   7.457814 H        1 UNL1     0.0317
     82 H         4.016484   3.617961   7.446602 H        1 UNL1     0.0428
     83 H         2.471917   4.301909   6.990279 H        1 UNL1     0.0428
     84 H         5.151333   3.36676   3.820205 H        1 UNL1     0.0428
     85 H         5.721124   3.060087   5.423456 H        1 UNL1     0.0428
     86 H         4.844197   1.107101   4.142168 H        1 UNL1     0.0317
     87 H         3.290668   1.786548   3.977092 H        1 UNL1     0.0317
     88 H         3.374146   5.990011   5.802701 H        1 UNL1     0.0429
     89 H         5.093353   5.602806   5.905827 H        1 UNL1     0.0429
     90 H         3.424446   5.617797   3.316268 H        1 UNL1     0.0308
     91 H         4.344214   7.77589   2.782075 H        1 UNL1     0.0233
     92 H         3.866208   7.91822   4.492849 H        1 UNL1     0.0233
     93 H         5.54963   7.705987   4.061977 H        1 UNL1     0.0233
     94 H         6.203527   5.839083   2.806162 H        1 UNL1     0.0233
     95 H         5.971751   4.488429   3.927028 H        1 UNL1     0.0233
     96 H         5.102531   4.514303   2.375327 H        1 UNL1     0.0233
     97 H         2.502077   -5.135176   11.649045 H        1 UNL1     0.0280
     98 H         0.988466   -4.986074   10.798199 H        1 UNL1     0.0280
     99 H         2.261509   -6.069045   10.160809 H        1 UNL1     0.0280
     100 H         4.773462   -3.551176   11.642148 H        1 UNL1     0.2922
     101 H         5.474845   -2.125451   1.088797 H        1 UNL1     0.0236
     102 H         4.04271   -3.226899   1.045625 H        1 UNL1     0.0236
     103 H         5.30721   -3.4336   2.217721 H        1 UNL1     0.0236
     104 H         3.263389   -1.228002   -0.166443 H        1 UNL1     0.2098
     105 H         -1.047351   -0.892398   1.057105 H        1 UNL1     0.0234
     106 H         0.260097   0.163989   1.661854 H        1 UNL1     0.0234
     107 H         0.0   0.0   0.0 H        1 UNL1     0.0234
     108 H         1.248506   -4.62712   1.096174 H        1 UNL1     0.2098
     109 H         -1.716325   -0.316164   3.028051 H        1 UNL1     0.0234
     110 H         -1.609824   -1.26584   4.544486 H        1 UNL1     0.0234
     111 H         -0.410255   -1.447538   3.312876 H        1 UNL1     0.0234
     112 H         -4.93749   -1.711448   -1.410564 H        1 UNL1     0.0342
     113 H         -3.629479   -1.685544   -2.646151 H        1 UNL1     0.0342
     114 H         -3.592938   -2.863589   -1.331296 H        1 UNL1     0.0342
     115 H         -1.525486   -5.528533   0.628481 H        1 UNL1     0.0234
     116 H         -3.147829   -4.885534   0.353994 H        1 UNL1     0.0234
     117 H         -1.98506   -5.143211   -0.963282 H        1 UNL1     0.0234
     118 H         -0.677206   -2.425072   6.610722 H        1 UNL1     0.0309
     119 H         -1.292487   -3.949545   7.32169 H        1 UNL1     0.0309
     120 H         -0.306579   -2.83681   8.24471 H        1 UNL1     0.0309
     121 H         -2.626179   -5.899916   0.966367 H        1 UNL1     0.0524
     122 H         -3.872611   -5.017051   1.857329 H        1 UNL1     0.0524
     123 H         -2.683808   -4.118415   0.881142 H        1 UNL1     0.0524
@<TRIPOS>BOND
     1     1     2    1
     2     1    42    1
     3     2     3    2
     4     3     4    1
     5     4     5    2
     6     5     7    1
     7     6    75    1
     8     6    76    1
     9     6    77    1
    10     7     9   am
    11     9    10    1
    12    10    11    2
    13    10    43    1
    14    11    14    1
    15    11    15    1
    16    12    13   ar
    17    12    27   ar
    18    12    43    1
    19    13    14    1
    20    13    30   ar
    21    14    17    2
    22    15    16    1
    23    16    17    1
    24    16    18    1
    25    16    22    1
    26    18    19    1
    27    19    20    1
    28    20    21    1
    29    21    22    1
    30    23    24    1
    31    23    88    1
    32    23    89    1
    33    24    25    1
    34    24    26    1
    35    24    90    1
    36    25    91    1
    37    25    92    1
    38    25    93    1
    39    26    94    1
    40    26    95    1
    41    26    96    1
    42    27    28   ar
    43    28    29   ar
    44    29    30   ar
    45    29    31    1
    46    30    33    1
    47    31    32    1
    48    32    33    1
    49    32    35    1
    50    34    97    1
    51    34    98    1
    52    34    99    1
    53    35    61    1
    54    36    37    1
    55    36    60    1
    56    37    38    1
    57    38    39    1
    58    39    40    1
    59    40    41    1
    60    41    42    1
    61    45   100    1
    62    47   101    1
    63    47   102    1
    64    47   103    1
    65    48   104    1
    66    49   105    1
    67    49   106    1
    68    49   107    1
    69    50   108    1
    70    51    59    1
    71    52   109    1
    72    52   110    1
    73    52   111    1
    74    53    54    1
    75    54    55    2
    76    54    56    1
    77    56   112    1
    78    56   113    1
    79    56   114    1
    80    57   115    1
    81    57   116    1
    82    57   117    1
    83    58   118    1
    84    58   119    1
    85    58   120    1
    86    59   121    1
    87    59   122    1
    88    59   123    1
    89    60    61    2
    90     1    47    1
    91     1    62    1
    92     2    63    1
    93     3    64    1
    94     4    65    1
    95     5     6    1
    96     7     8    2
    97     9    78    1
    98    15    79    1
    99    18    80    1
   100    18    81    1
   101    19    82    1
   102    19    83    1
   103    20    23    1
   104    21    84    1
   105    21    85    1
   106    22    86    1
   107    22    87    1
   108    27    45    1
   109    28    34    1
   110    32    58    1
   111    33    46    2
   112    36    51    1
   113    36    66    1
   114    37    52    1
   115    37    67    1
   116    38    53    1
   117    38    68    1
   118    42    48    1
   119    42    72    1
   120    43    44    2
   121    60    73    1
   122    61    74    1
   123    39    69    1
   124    39    57    1
   125    40    70    1
   126    40    50    1
   127    41    71    1
   128    41    49    1
