@<TRIPOS>MOLECULE
*****
 123 128 0 0 0
SMALL
GASTEIGER

@<TRIPOS>ATOM
     1 C         4.476394   1.625317   -1.069328 C.3        1 UNL1     0.0009
     2 C         5.963791   1.13611   -2.061983 C.2        1 UNL1     -0.0787
     3 C         7.176876   0.359363   -2.207356 C.2        1 UNL1     -0.0649
     4 C         8.180142   0.240955   -3.565956 C.2        1 UNL1     -0.0542
     5 C         9.175934   -0.534176   -4.209887 C.2        1 UNL1     0.0115
     6 C         10.148653   -1.731798   -4.028662 C.3        1 UNL1     -0.0348
     7 C         9.451684   -0.300462   -5.773962 C.2        1 UNL1     0.2441
     8 O         10.407224   0.338171   -6.19303 O.2        1 UNL1     -0.2702
     9 N         8.673275   -1.094213   -6.634304 N.am        1 UNL1     -0.2772
     10 C         7.481142   -0.468295   -6.917797 C.2        1 UNL1     0.1049
     11 C         6.520841   -0.612349   -6.022648 C.2        1 UNL1     0.0801
     12 C         6.515235   1.716873   -7.659011 C.ar        1 UNL1     0.0753
     13 C         5.626723   1.613755   -6.541639 C.ar        1 UNL1     0.0305
     14 C         5.514101   0.381316   -5.76481 C.2        1 UNL1     0.0924
     15 N         6.438578   -1.444471   -4.970349 N.pl3        1 UNL1     -0.3170
     16 C         5.115141   -1.325441   -4.418444 C.3        1 UNL1     0.1275
     17 N         4.682905   0.076601   -4.772244 N.2        1 UNL1     -0.2557
     18 C         4.208391   -2.261125   -5.212171 C.3        1 UNL1     0.0016
     19 C         4.788644   -3.665255   -5.154599 C.3        1 UNL1     0.0026
     20 N         4.876428   -4.078328   -3.760794 N.3        1 UNL1     -0.3018
     21 C         5.678587   -3.204042   -2.902578 C.3        1 UNL1     0.0026
     22 C         5.075265   -1.800083   -2.971837 C.3        1 UNL1     0.0016
     23 C         5.131469   -5.496868   -3.608008 C.3        1 UNL1     0.0012
     24 C         3.897101   -6.313648   -4.021483 C.3        1 UNL1     -0.0339
     25 C         3.753174   -7.585497   -3.169578 C.3        1 UNL1     -0.0615
     26 C         2.65135   -5.447893   -3.948323 C.3        1 UNL1     -0.0615
     27 C         6.529545   2.851017   -8.467485 C.ar        1 UNL1     0.1347
     28 C         5.677334   3.925   -8.282151 C.ar        1 UNL1     0.0342
     29 C         4.845398   3.822301   -7.14703 C.ar        1 UNL1     0.1435
     30 C         4.845571   2.70797   -6.307097 C.ar        1 UNL1     0.0774
     31 O         3.883322   4.736127   -6.893382 O.3        1 UNL1     -0.4436
     32 C         2.982277   4.073775   -5.993226 C.3        1 UNL1     0.3143
     33 C         3.807104   2.985213   -5.336793 C.2        1 UNL1     0.2504
     34 C         5.461127   5.05602   -9.248664 C.3        1 UNL1     -0.0327
     35 O         2.638496   5.012878   -4.966993 O.2        1 UNL1     -0.4528
     36 C         -0.869498   4.092426   -3.846802 C.3        1 UNL1     0.0854
     37 C         -1.407107   2.722208   -3.280231 C.3        1 UNL1     0.0236
     38 C         -2.138828   2.820023   -1.856588 C.3        1 UNL1     0.1131
     39 C         -1.424332   3.561707   -0.655892 C.3        1 UNL1     0.0200
     40 C         0.197342   3.313311   -0.354379 C.3        1 UNL1     0.0661
     41 C         0.964825   1.805885   -0.226917 C.3        1 UNL1     0.0091
     42 C         2.671522   1.298332   -0.668481 C.3        1 UNL1     0.0661
     43 C         7.358253   0.539051   -7.98199 C.2        1 UNL1     0.2131
     44 O         7.842784   0.339227   -9.081097 O.2        1 UNL1     -0.2851
     45 O         7.456406   2.890492   -9.507105 O.3        1 UNL1     -0.5056
     46 O         3.654636   2.476996   -4.248527 O.2        1 UNL1     -0.2836
     47 C         4.88833   2.576597   0.086249 C.3        1 UNL1     -0.0566
     48 O         2.913094   0.587704   0.610491 O.3        1 UNL1     -0.3909
     49 C         0.035253   0.738397   -0.759702 C.3        1 UNL1     -0.0577
     50 O         0.99074   4.196092   -1.121803 O.3        1 UNL1     -0.3910
     51 O         -0.93922   5.192359   -2.967759 O.3        1 UNL1     -0.3753
     52 C         -0.46578   1.529934   -3.650819 C.3        1 UNL1     -0.0564
     53 O         -2.937816   1.598706   -1.506831 O.3        1 UNL1     -0.4608
     54 C         -2.857593   0.907205   -0.326441 C.2        1 UNL1     0.3042
     55 O         -2.279598   -0.159888   -0.123776 O.2        1 UNL1     -0.2512
     56 C         -3.521084   1.605842   0.826121 C.3        1 UNL1     0.0332
     57 C         -1.965664   5.066483   -0.627897 C.3        1 UNL1     -0.0567
     58 C         1.893493   3.413872   -6.871067 C.3        1 UNL1     0.0210
     59 C         -1.93519   6.159875   -3.296122 C.3        1 UNL1     0.0372
     60 C         0.521543   4.052242   -4.374581 C.2        1 UNL1     -0.0208
     61 C         1.537044   4.899073   -4.200286 C.2        1 UNL1     0.0882
     62 H         4.15522   2.263978   -1.900995 H        1 UNL1     0.0365
     63 H         5.860901   1.799454   -2.923295 H        1 UNL1     0.0576
     64 H         7.474798   -0.381727   -1.462281 H        1 UNL1     0.0615
     65 H         7.852921   1.06616   -4.20427 H        1 UNL1     0.0622
     66 H         -1.51379   4.305413   -4.711424 H        1 UNL1     0.0645
     67 H         -2.252089   2.470502   -3.944467 H        1 UNL1     0.0362
     68 H         -2.989946   3.461783   -2.130933 H        1 UNL1     0.0741
     69 H         -1.888142   3.250739   0.270708 H        1 UNL1     0.0359
     70 H         0.262267   3.708945   0.67728 H        1 UNL1     0.0600
     71 H         0.883393   1.639252   0.865126 H        1 UNL1     0.0348
     72 H         2.694991   2.393981   -0.577282 H        1 UNL1     0.0602
     73 H         0.606788   3.258329   -5.074354 H        1 UNL1     0.0628
     74 H         1.55087   5.701763   -3.462225 H        1 UNL1     0.1022
     75 H         10.697975   -1.647566   -3.060063 H        1 UNL1     0.0279
     76 H         9.69568   -2.718012   -3.956083 H        1 UNL1     0.0279
     77 H         10.978499   -1.718633   -4.750384 H        1 UNL1     0.0279
     78 H         8.454568   -1.97827   -6.179673 H        1 UNL1     0.1553
     79 H         6.997315   -2.271867   -4.869544 H        1 UNL1     0.1484
     80 H         3.198569   -2.22726   -4.7857 H        1 UNL1     0.0317
     81 H         4.120376   -1.931077   -6.252831 H        1 UNL1     0.0317
     82 H         5.771009   -3.720301   -5.646373 H        1 UNL1     0.0428
     83 H         4.127693   -4.315707   -5.728278 H        1 UNL1     0.0428
     84 H         5.662938   -3.491502   -1.846674 H        1 UNL1     0.0428
     85 H         6.743639   -3.232886   -3.171184 H        1 UNL1     0.0428
     86 H         5.601263   -1.22221   -2.234696 H        1 UNL1     0.0317
     87 H         4.04545   -1.81575   -2.594567 H        1 UNL1     0.0317
     88 H         5.966271   -5.766811   -4.267956 H        1 UNL1     0.0429
     89 H         5.440831   -5.738263   -2.582924 H        1 UNL1     0.0429
     90 H         3.996476   -6.607234   -5.073217 H        1 UNL1     0.0308
     91 H         3.891872   -7.369591   -2.105976 H        1 UNL1     0.0233
     92 H         2.771202   -8.040801   -3.318028 H        1 UNL1     0.0233
     93 H         4.489639   -8.35289   -3.437088 H        1 UNL1     0.0233
     94 H         1.759276   -6.076742   -3.855641 H        1 UNL1     0.0233
     95 H         2.698758   -4.798446   -3.069726 H        1 UNL1     0.0233
     96 H         2.544525   -4.826071   -4.841572 H        1 UNL1     0.0233
     97 H         4.422909   5.135794   -9.556837 H        1 UNL1     0.0280
     98 H         5.72051   6.029145   -8.811624 H        1 UNL1     0.0280
     99 H         6.07731   4.895431   -10.148455 H        1 UNL1     0.0280
     100 H         8.336191   2.670341   -9.255841 H        1 UNL1     0.2922
     101 H         4.601817   3.598976   -0.159324 H        1 UNL1     0.0236
     102 H         5.942637   2.499407   0.349804 H        1 UNL1     0.0236
     103 H         4.347838   2.351281   1.020751 H        1 UNL1     0.0236
     104 H         2.493324   1.109874   1.3219 H        1 UNL1     0.2098
     105 H         -0.981418   1.077941   -0.94109 H        1 UNL1     0.0234
     106 H         0.413108   0.197005   -1.626909 H        1 UNL1     0.0234
     107 H         0.0   -0.0   0.0 H        1 UNL1     0.0234
     108 H         0.787759   4.025837   -2.061792 H        1 UNL1     0.2098
     109 H         0.531275   1.631449   -3.199945 H        1 UNL1     0.0234
     110 H         -0.887063   0.552492   -3.392223 H        1 UNL1     0.0234
     111 H         -0.297251   1.468966   -4.734252 H        1 UNL1     0.0234
     112 H         -3.402951   1.013261   1.738391 H        1 UNL1     0.0342
     113 H         -3.141823   2.617102   0.965253 H        1 UNL1     0.0342
     114 H         -4.595684   1.6802   0.609625 H        1 UNL1     0.0342
     115 H         -3.059879   5.105236   -0.536358 H        1 UNL1     0.0234
     116 H         -1.547105   5.673949   0.17699 H        1 UNL1     0.0234
     117 H         -1.812007   5.607016   -1.577716 H        1 UNL1     0.0234
     118 H         0.912943   3.908357   -6.756995 H        1 UNL1     0.0309
     119 H         2.157846   3.383346   -7.932853 H        1 UNL1     0.0309
     120 H         1.689316   2.377817   -6.579506 H        1 UNL1     0.0309
     121 H         -1.61434   7.116225   -2.884046 H        1 UNL1     0.0524
     122 H         -2.049714   6.289336   -4.385232 H        1 UNL1     0.0524
     123 H         -2.893172   5.871722   -2.872645 H        1 UNL1     0.0524
@<TRIPOS>BOND
     1     1     2    1
     2     1    42    1
     3     2     3    2
     4     3     4    1
     5     4     5    2
     6     5     7    1
     7     6    75    1
     8     6    76    1
     9     6    77    1
    10     7     9   am
    11     9    10    1
    12    10    11    2
    13    10    43    1
    14    11    14    1
    15    11    15    1
    16    12    13   ar
    17    12    27   ar
    18    12    43    1
    19    13    14    1
    20    13    30   ar
    21    14    17    2
    22    15    16    1
    23    16    17    1
    24    16    18    1
    25    16    22    1
    26    18    19    1
    27    19    20    1
    28    20    21    1
    29    21    22    1
    30    23    24    1
    31    23    88    1
    32    23    89    1
    33    24    25    1
    34    24    26    1
    35    24    90    1
    36    25    91    1
    37    25    92    1
    38    25    93    1
    39    26    94    1
    40    26    95    1
    41    26    96    1
    42    27    28   ar
    43    28    29   ar
    44    29    30   ar
    45    29    31    1
    46    30    33    1
    47    31    32    1
    48    32    33    1
    49    32    35    1
    50    34    97    1
    51    34    98    1
    52    34    99    1
    53    35    61    1
    54    36    37    1
    55    36    60    1
    56    37    38    1
    57    38    39    1
    58    39    40    1
    59    40    41    1
    60    41    42    1
    61    45   100    1
    62    47   101    1
    63    47   102    1
    64    47   103    1
    65    48   104    1
    66    49   105    1
    67    49   106    1
    68    49   107    1
    69    50   108    1
    70    51    59    1
    71    52   109    1
    72    52   110    1
    73    52   111    1
    74    53    54    1
    75    54    55    2
    76    54    56    1
    77    56   112    1
    78    56   113    1
    79    56   114    1
    80    57   115    1
    81    57   116    1
    82    57   117    1
    83    58   118    1
    84    58   119    1
    85    58   120    1
    86    59   121    1
    87    59   122    1
    88    59   123    1
    89    60    61    2
    90     1    47    1
    91     1    62    1
    92     2    63    1
    93     3    64    1
    94     4    65    1
    95     5     6    1
    96     7     8    2
    97     9    78    1
    98    15    79    1
    99    18    80    1
   100    18    81    1
   101    19    82    1
   102    19    83    1
   103    20    23    1
   104    21    84    1
   105    21    85    1
   106    22    86    1
   107    22    87    1
   108    27    45    1
   109    28    34    1
   110    32    58    1
   111    33    46    2
   112    36    51    1
   113    36    66    1
   114    37    52    1
   115    37    67    1
   116    38    53    1
   117    38    68    1
   118    42    48    1
   119    42    72    1
   120    43    44    2
   121    60    73    1
   122    61    74    1
   123    39    69    1
   124    39    57    1
   125    40    70    1
   126    40    50    1
   127    41    71    1
   128    41    49    1
