@<TRIPOS>MOLECULE
*****
 123 128 0 0 0
SMALL
GASTEIGER

@<TRIPOS>ATOM
     1 C         -3.667542   0.651694   2.237375 C.3        1 UNL1     0.0009
     2 C         -4.530331   2.194534   2.796192 C.2        1 UNL1     -0.0787
     3 C         -4.69033   3.266859   3.755654 C.2        1 UNL1     -0.0649
     4 C         -5.704571   4.618068   3.646542 C.2        1 UNL1     -0.0542
     5 C         -5.946912   5.929511   4.124524 C.2        1 UNL1     0.0115
     6 C         -5.535313   6.970422   5.201749 C.3        1 UNL1     -0.0348
     7 C         -6.900099   6.902304   3.274762 C.2        1 UNL1     0.2441
     8 O         -8.062318   7.129575   3.581553 O.2        1 UNL1     -0.2702
     9 N         -6.237927   7.67785   2.307184 N.am        1 UNL1     -0.2772
     10 C         -6.15217   6.991222   1.117852 C.2        1 UNL1     0.1049
     11 C         -5.156702   6.129586   1.013693 C.2        1 UNL1     0.0801
     12 C         -7.514613   5.67334   -0.514407 C.ar        1 UNL1     0.0753
     13 C         -6.499052   4.668217   -0.430896 C.ar        1 UNL1     0.0305
     14 C         -5.223584   4.922683   0.235047 C.2        1 UNL1     0.0924
     15 N         -4.079354   5.9554   1.798236 N.pl3        1 UNL1     -0.3170
     16 C         -3.214213   5.004598   1.151893 C.3        1 UNL1     0.1275
     17 N         -4.142669   4.152558   0.3214 N.2        1 UNL1     -0.2557
     18 C         -2.350756   5.779524   0.161119 C.3        1 UNL1     0.0016
     19 C         -1.62178   6.883237   0.910787 C.3        1 UNL1     0.0026
     20 N         -0.80663   6.279435   1.955766 N.3        1 UNL1     -0.3018
     21 C         -1.541581   5.461964   2.923215 C.3        1 UNL1     0.0026
     22 C         -2.262424   4.357013   2.149029 C.3        1 UNL1     0.0016
     23 C         0.150544   7.204285   2.529451 C.3        1 UNL1     0.0012
     24 C         -0.16614   8.644511   2.096767 C.3        1 UNL1     -0.0339
     25 C         -0.881664   9.422674   3.213255 C.3        1 UNL1     -0.0615
     26 C         1.105442   9.346396   1.652677 C.3        1 UNL1     -0.0615
     27 C         -8.676834   5.465415   -1.253411 C.ar        1 UNL1     0.1347
     28 C         -8.916803   4.313324   -1.98084 C.ar        1 UNL1     0.0342
     29 C         -7.925586   3.318343   -1.844219 C.ar        1 UNL1     0.1435
     30 C         -6.773142   3.498489   -1.078295 C.ar        1 UNL1     0.0774
     31 O         -7.960461   2.183588   -2.576421 O.3        1 UNL1     -0.4436
     32 C         -6.617044   1.679774   -2.528713 C.3        1 UNL1     0.3143
     33 C         -6.012031   2.282777   -1.277091 C.2        1 UNL1     0.2504
     34 C         -10.013358   4.120807   -2.99109 C.3        1 UNL1     -0.0327
     35 O         -6.699846   0.265685   -2.3125 O.2        1 UNL1     -0.4528
     36 C         -3.641958   -1.225286   -3.996071 C.3        1 UNL1     0.0854
     37 C         -2.116296   -0.909101   -3.751314 C.3        1 UNL1     0.0236
     38 C         -1.2105   -2.183779   -3.39568 C.3        1 UNL1     0.1131
     39 C         -1.662215   -3.17174   -2.24583 C.3        1 UNL1     0.0200
     40 C         -2.253287   -2.576301   -0.804121 C.3        1 UNL1     0.0661
     41 C         -1.523909   -1.378006   0.149665 C.3        1 UNL1     0.0091
     42 C         -2.272068   -0.09679   1.228621 C.3        1 UNL1     0.0661
     43 C         -7.249205   6.979195   0.138708 C.2        1 UNL1     0.2131
     44 O         -7.813394   8.013164   -0.170059 O.2        1 UNL1     -0.2851
     45 O         -9.635707   6.476327   -1.245711 O.3        1 UNL1     -0.5056
     46 O         -5.118082   1.846642   -0.586804 O.2        1 UNL1     -0.2836
     47 C         -4.12374   -0.561094   3.092367 C.3        1 UNL1     -0.0566
     48 O         -1.370635   -0.372036   2.373512 O.3        1 UNL1     -0.3909
     49 C         -0.446412   -0.695835   -0.663438 C.3        1 UNL1     -0.0577
     50 O         -3.644872   -2.344471   -0.890548 O.3        1 UNL1     -0.3910
     51 O         -4.052662   -2.542049   -3.704712 O.3        1 UNL1     -0.3753
     52 C         -1.913721   0.475347   -3.053305 C.3        1 UNL1     -0.0564
     53 O         0.263103   -1.925071   -3.513533 O.3        1 UNL1     -0.4608
     54 C         1.107445   -2.529358   -4.407879 C.2        1 UNL1     0.3042
     55 O         1.477163   -3.702875   -4.410316 O.2        1 UNL1     -0.2512
     56 C         1.555853   -1.622755   -5.518606 C.3        1 UNL1     0.0332
     57 C         -2.451677   -4.38169   -2.932085 C.3        1 UNL1     -0.0567
     58 C         -5.888583   2.258888   -3.763825 C.3        1 UNL1     0.0210
     59 C         -3.431681   -3.124059   -2.5595 C.3        1 UNL1     0.0372
     60 C         -4.59224   -0.315369   -3.300245 C.2        1 UNL1     -0.0208
     61 C         -5.700428   -0.586878   -2.609632 C.2        1 UNL1     0.0882
     62 H         -4.292222   0.651791   1.335994 H        1 UNL1     0.0365
     63 H         -5.305333   2.282588   2.031935 H        1 UNL1     0.0576
     64 H         -4.012913   3.380914   4.604892 H        1 UNL1     0.0615
     65 H         -6.384245   4.368271   2.827318 H        1 UNL1     0.0622
     66 H         -3.79084   -1.051547   -5.071103 H        1 UNL1     0.0645
     67 H         -1.734321   -0.640628   -4.751603 H        1 UNL1     0.0362
     68 H         -1.320635   -2.75428   -4.330518 H        1 UNL1     0.0741
     69 H         -0.805867   -3.752189   -1.929355 H        1 UNL1     0.0359
     70 H         -2.162241   -3.480731   -0.172633 H        1 UNL1     0.0600
     71 H         -0.917117   -2.011823   0.825709 H        1 UNL1     0.0348
     72 H         -3.048582   -0.861709   1.082883 H        1 UNL1     0.0602
     73 H         -4.341372   0.691113   -3.526757 H        1 UNL1     0.0628
     74 H         -5.996893   -1.58554   -2.287111 H        1 UNL1     0.1022
     75 H         -4.518438   6.73972   5.601469 H        1 UNL1     0.0279
     76 H         -5.427116   7.999276   4.865858 H        1 UNL1     0.0279
     77 H         -6.146942   6.903485   6.113412 H        1 UNL1     0.0279
     78 H         -5.288325   7.873623   2.617035 H        1 UNL1     0.1553
     79 H         -3.742376   6.646426   2.44311 H        1 UNL1     0.1484
     80 H         -1.646863   5.087703   -0.317091 H        1 UNL1     0.0317
     81 H         -2.962787   6.207504   -0.640069 H        1 UNL1     0.0317
     82 H         -2.321385   7.620722   1.331002 H        1 UNL1     0.0428
     83 H         -1.013492   7.424311   0.18534 H        1 UNL1     0.0428
     84 H         -0.897362   4.956028   3.649042 H        1 UNL1     0.0428
     85 H         -2.215957   6.069191   3.542738 H        1 UNL1     0.0428
     86 H         -2.677406   3.704469   2.894659 H        1 UNL1     0.0317
     87 H         -1.53116   3.721766   1.634432 H        1 UNL1     0.0317
     88 H         0.072055   7.142562   3.62276 H        1 UNL1     0.0429
     89 H         1.179459   6.928483   2.264797 H        1 UNL1     0.0429
     90 H         -0.817979   8.619683   1.215459 H        1 UNL1     0.0308
     91 H         -1.597117   8.78807   3.744768 H        1 UNL1     0.0233
     92 H         -0.159539   9.825116   3.927527 H        1 UNL1     0.0233
     93 H         -1.443452   10.282646   2.828966 H        1 UNL1     0.0233
     94 H         1.952667   8.653169   1.691175 H        1 UNL1     0.0233
     95 H         1.000053   9.692966   0.620813 H        1 UNL1     0.0233
     96 H         1.331687   10.204429   2.291865 H        1 UNL1     0.0233
     97 H         -10.335106   3.085368   -3.050872 H        1 UNL1     0.0280
     98 H         -10.911701   4.700775   -2.742349 H        1 UNL1     0.0280
     99 H         -9.65595   4.429659   -3.987064 H        1 UNL1     0.0280
     100 H         -9.328655   7.304745   -0.921573 H        1 UNL1     0.2922
     101 H         -5.027526   -0.302937   3.643892 H        1 UNL1     0.0236
     102 H         -3.340661   -0.943288   3.746354 H        1 UNL1     0.0236
     103 H         -4.413508   -1.422539   2.467755 H        1 UNL1     0.0236
     104 H         -0.544105   0.127706   2.22493 H        1 UNL1     0.2098
     105 H         0.334547   -1.361477   -1.022373 H        1 UNL1     0.0234
     106 H         -0.816125   -0.073325   -1.478129 H        1 UNL1     0.0234
     107 H         0.0   0.0   0.0 H        1 UNL1     0.0234
     108 H         -3.772175   -1.541923   -1.432284 H        1 UNL1     0.2098
     109 H         -2.534107   0.581753   -2.152467 H        1 UNL1     0.0234
     110 H         -0.867447   0.682792   -2.804263 H        1 UNL1     0.0234
     111 H         -2.200474   1.306278   -3.711539 H        1 UNL1     0.0234
     112 H         1.154705   -1.977006   -6.473035 H        1 UNL1     0.0342
     113 H         1.277116   -0.585595   -5.338474 H        1 UNL1     0.0342
     114 H         2.652115   -1.66755   -5.576633 H        1 UNL1     0.0342
     115 H         -2.090517   -4.57945   -3.950733 H        1 UNL1     0.0234
     116 H         -2.396515   -5.319792   -2.376234 H        1 UNL1     0.0234
     117 H         -3.516038   -4.160741   -3.122503 H        1 UNL1     0.0234
     118 H         -6.547394   2.308042   -4.648448 H        1 UNL1     0.0309
     119 H         -5.457043   3.248513   -3.583221 H        1 UNL1     0.0309
     120 H         -5.061407   1.624116   -4.099905 H        1 UNL1     0.0309
     121 H         -3.953484   -4.054856   -2.338831 H        1 UNL1     0.0524
     122 H         -2.372189   -3.371864   -2.738687 H        1 UNL1     0.0524
     123 H         -3.497112   -2.447649   -1.711985 H        1 UNL1     0.0524
@<TRIPOS>BOND
     1     1     2    1
     2     1    42    1
     3     2     3    2
     4     3     4    1
     5     4     5    2
     6     5     7    1
     7     6    75    1
     8     6    76    1
     9     6    77    1
    10     7     9   am
    11     9    10    1
    12    10    11    2
    13    10    43    1
    14    11    14    1
    15    11    15    1
    16    12    13   ar
    17    12    27   ar
    18    12    43    1
    19    13    14    1
    20    13    30   ar
    21    14    17    2
    22    15    16    1
    23    16    17    1
    24    16    18    1
    25    16    22    1
    26    18    19    1
    27    19    20    1
    28    20    21    1
    29    21    22    1
    30    23    24    1
    31    23    88    1
    32    23    89    1
    33    24    25    1
    34    24    26    1
    35    24    90    1
    36    25    91    1
    37    25    92    1
    38    25    93    1
    39    26    94    1
    40    26    95    1
    41    26    96    1
    42    27    28   ar
    43    28    29   ar
    44    29    30   ar
    45    29    31    1
    46    30    33    1
    47    31    32    1
    48    32    33    1
    49    32    35    1
    50    34    97    1
    51    34    98    1
    52    34    99    1
    53    35    61    1
    54    36    37    1
    55    36    60    1
    56    37    38    1
    57    38    39    1
    58    39    40    1
    59    40    41    1
    60    41    42    1
    61    45   100    1
    62    47   101    1
    63    47   102    1
    64    47   103    1
    65    48   104    1
    66    49   105    1
    67    49   106    1
    68    49   107    1
    69    50   108    1
    70    51    59    1
    71    52   109    1
    72    52   110    1
    73    52   111    1
    74    53    54    1
    75    54    55    2
    76    54    56    1
    77    56   112    1
    78    56   113    1
    79    56   114    1
    80    57   115    1
    81    57   116    1
    82    57   117    1
    83    58   118    1
    84    58   119    1
    85    58   120    1
    86    59   121    1
    87    59   122    1
    88    59   123    1
    89    60    61    2
    90     1    47    1
    91     1    62    1
    92     2    63    1
    93     3    64    1
    94     4    65    1
    95     5     6    1
    96     7     8    2
    97     9    78    1
    98    15    79    1
    99    18    80    1
   100    18    81    1
   101    19    82    1
   102    19    83    1
   103    20    23    1
   104    21    84    1
   105    21    85    1
   106    22    86    1
   107    22    87    1
   108    27    45    1
   109    28    34    1
   110    32    58    1
   111    33    46    2
   112    36    51    1
   113    36    66    1
   114    37    52    1
   115    37    67    1
   116    38    53    1
   117    38    68    1
   118    42    48    1
   119    42    72    1
   120    43    44    2
   121    60    73    1
   122    61    74    1
   123    39    69    1
   124    39    57    1
   125    40    70    1
   126    40    50    1
   127    41    71    1
   128    41    49    1
