@<TRIPOS>MOLECULE
*****
 123 128 0 0 0
SMALL
GASTEIGER

@<TRIPOS>ATOM
     1 C         4.006258   2.086746   -3.099539 C.3        1 UNL1     0.0009
     2 C         5.485454   1.711059   -4.152097 C.2        1 UNL1     -0.0787
     3 C         6.921647   1.64786   -4.323566 C.2        1 UNL1     -0.0649
     4 C         7.785977   1.036368   -5.64469 C.2        1 UNL1     -0.0542
     5 C         9.037194   0.536676   -6.082687 C.2        1 UNL1     0.0115
     6 C         10.527881   0.357175   -5.683996 C.3        1 UNL1     -0.0348
     7 C         9.102068   -0.30844   -7.445977 C.2        1 UNL1     0.2441
     8 O         9.500781   0.1623   -8.502366 O.2        1 UNL1     -0.2702
     9 N         8.918672   -1.693391   -7.28969 N.am        1 UNL1     -0.2772
     10 C         7.580964   -2.010282   -7.348323 C.2        1 UNL1     0.1049
     11 C         6.897492   -1.859612   -6.228328 C.2        1 UNL1     0.0801
     12 C         5.512536   -1.640502   -8.705601 C.ar        1 UNL1     0.0753
     13 C         4.866885   -1.281046   -7.479822 C.ar        1 UNL1     0.0305
     14 C         5.504412   -1.506365   -6.184506 C.2        1 UNL1     0.0924
     15 N         7.330713   -1.644909   -4.974235 N.pl3        1 UNL1     -0.3170
     16 C         6.193783   -1.728055   -4.096322 C.3        1 UNL1     0.1275
     17 N         5.020875   -1.329177   -4.958242 N.2        1 UNL1     -0.2557
     18 C         5.989685   -3.201952   -3.759165 C.3        1 UNL1     0.0016
     19 C         7.279735   -3.749057   -3.16922 C.3        1 UNL1     0.0026
     20 N         7.612276   -2.980213   -1.977867 N.3        1 UNL1     -0.3018
     21 C         7.768057   -1.539823   -2.190885 C.3        1 UNL1     0.0026
     22 C         6.45918   -1.010396   -2.779478 C.3        1 UNL1     0.0016
     23 C         8.647766   -3.601643   -1.176474 C.3        1 UNL1     0.0012
     24 C         8.113762   -4.87315   -0.498341 C.3        1 UNL1     -0.0339
     25 C         8.7499   -5.081805   0.885801 C.3        1 UNL1     -0.0615
     26 C         6.598122   -4.821576   -0.414946 C.3        1 UNL1     -0.0615
     27 C         4.851852   -1.535057   -9.927278 C.ar        1 UNL1     0.1347
     28 C         3.53655   -1.122466   -10.044749 C.ar        1 UNL1     0.0342
     29 C         2.936909   -0.727291   -8.830076 C.ar        1 UNL1     0.1435
     30 C         3.598297   -0.793195   -7.603111 C.ar        1 UNL1     0.0774
     31 O         1.626557   -0.40562   -8.762896 O.3        1 UNL1     -0.4436
     32 C         1.293092   -0.531392   -7.372265 C.3        1 UNL1     0.3143
     33 C         2.607114   -0.374599   -6.634041 C.2        1 UNL1     0.2504
     34 C         2.687952   -1.223376   -11.2816 C.3        1 UNL1     -0.0327
     35 O         0.482098   0.597707   -7.024879 O.2        1 UNL1     -0.4528
     36 C         -1.817012   -0.587686   -4.246926 C.3        1 UNL1     0.0854
     37 C         -1.447858   -1.214143   -2.847355 C.3        1 UNL1     0.0236
     38 C         -2.078496   -0.458576   -1.581196 C.3        1 UNL1     0.1131
     39 C         -1.911691   1.107976   -1.438515 C.3        1 UNL1     0.0200
     40 C         -0.444342   1.833987   -1.758258 C.3        1 UNL1     0.0661
     41 C         1.059086   1.351474   -1.138181 C.3        1 UNL1     0.0091
     42 C         2.735409   1.440047   -1.878112 C.3        1 UNL1     0.0661
     43 C         6.878781   -2.21409   -8.624158 C.2        1 UNL1     0.2131
     44 O         7.372686   -2.903102   -9.498262 O.2        1 UNL1     -0.2851
     45 O         5.566884   -1.861815   -11.077668 O.3        1 UNL1     -0.5056
     46 O         2.795215   0.026708   -5.507353 O.2        1 UNL1     -0.2836
     47 C         3.804414   3.621418   -2.981136 C.3        1 UNL1     -0.0566
     48 O         3.364501   2.016608   -0.665291 O.3        1 UNL1     -0.3909
     49 C         0.917046   -0.026436   -0.530987 C.3        1 UNL1     -0.0577
     50 O         -0.32475   2.138117   -3.133367 O.3        1 UNL1     -0.3910
     51 O         -2.501046   0.644429   -4.209232 O.3        1 UNL1     -0.3753
     52 C         0.006009   -1.789474   -2.83269 C.3        1 UNL1     -0.0564
     53 O         -2.011727   -1.255903   -0.311495 O.3        1 UNL1     -0.4608
     54 C         -1.778802   -0.743401   0.937912 C.2        1 UNL1     0.3042
     55 O         -0.728161   -0.781997   1.577054 O.2        1 UNL1     -0.2512
     56 C         -2.957995   -0.016558   1.51922 C.3        1 UNL1     0.0332
     57 C         -3.227431   1.789872   -2.040197 C.3        1 UNL1     -0.0567
     58 C         0.779205   -1.97652   -7.174645 C.3        1 UNL1     0.0210
     59 C         -3.878845   0.57648   -4.57381 C.3        1 UNL1     0.0372
     60 C         -0.670675   -0.413851   -5.180122 C.2        1 UNL1     -0.0208
     61 C         -0.335632   0.618726   -5.954897 C.2        1 UNL1     0.0882
     62 H         3.360996   1.748566   -3.919284 H        1 UNL1     0.0365
     63 H         5.002823   1.455552   -5.097747 H        1 UNL1     0.0576
     64 H         7.606359   1.855869   -3.498333 H        1 UNL1     0.0615
     65 H         7.030058   0.940487   -6.42883 H        1 UNL1     0.0622
     66 H         -2.477589   -1.330326   -4.716148 H        1 UNL1     0.0645
     67 H         -1.99805   -2.170955   -2.8284 H        1 UNL1     0.0362
     68 H         -3.148082   -0.620827   -1.784129 H        1 UNL1     0.0741
     69 H         -2.093918   1.385019   -0.408734 H        1 UNL1     0.0359
     70 H         -0.606601   2.814549   -1.271196 H        1 UNL1     0.0600
     71 H         1.106111   1.984777   -0.230617 H        1 UNL1     0.0348
     72 H         2.117932   2.156259   -2.439431 H        1 UNL1     0.0602
     73 H         -0.149532   -1.334638   -5.268492 H        1 UNL1     0.0628
     74 H         -0.780782   1.611823   -5.885352 H        1 UNL1     0.1022
     75 H         10.939755   1.308268   -5.268285 H        1 UNL1     0.0279
     76 H         10.73493   -0.355211   -4.888568 H        1 UNL1     0.0279
     77 H         11.184086   0.197928   -6.552177 H        1 UNL1     0.0279
     78 H         9.262347   -1.983019   -6.37641 H        1 UNL1     0.1553
     79 H         8.26813   -1.83215   -4.669074 H        1 UNL1     0.1484
     80 H         5.155415   -3.295069   -3.05341 H        1 UNL1     0.0317
     81 H         5.710535   -3.772458   -4.651493 H        1 UNL1     0.0317
     82 H         8.103048   -3.725256   -3.898262 H        1 UNL1     0.0428
     83 H         7.112643   -4.801459   -2.937749 H        1 UNL1     0.0428
     84 H         7.93837   -0.975898   -1.2685 H        1 UNL1     0.0428
     85 H         8.646643   -1.310779   -2.809709 H        1 UNL1     0.0428
     86 H         6.561252   0.058835   -2.7972 H        1 UNL1     0.0317
     87 H         5.636767   -1.175152   -2.072662 H        1 UNL1     0.0317
     88 H         9.473747   -3.881741   -1.843254 H        1 UNL1     0.0429
     89 H         9.055001   -2.899837   -0.437283 H        1 UNL1     0.0429
     90 H         8.349868   -5.740948   -1.125552 H        1 UNL1     0.0308
     91 H         8.752725   -4.154277   1.466134 H        1 UNL1     0.0233
     92 H         8.214541   -5.852922   1.44471 H        1 UNL1     0.0233
     93 H         9.791391   -5.419187   0.820193 H        1 UNL1     0.0233
     94 H         6.240461   -5.489132   0.376435 H        1 UNL1     0.0233
     95 H         6.271577   -3.806353   -0.17276 H        1 UNL1     0.0233
     96 H         6.135992   -5.125397   -1.358395 H        1 UNL1     0.0233
     97 H         1.79297   -1.815255   -11.114517 H        1 UNL1     0.0280
     98 H         2.338718   -0.240898   -11.625151 H        1 UNL1     0.0280
     99 H         3.268992   -1.696239   -12.090234 H        1 UNL1     0.0280
     100 H         6.413964   -1.456676   -11.140449 H        1 UNL1     0.2922
     101 H         2.972616   3.93266   -3.612718 H        1 UNL1     0.0236
     102 H         4.710309   4.190144   -3.188234 H        1 UNL1     0.0236
     103 H         3.5101   3.923   -1.962008 H        1 UNL1     0.0236
     104 H         2.693012   2.014441   0.044687 H        1 UNL1     0.2098
     105 H         0.857908   -0.833287   -1.257145 H        1 UNL1     0.0234
     106 H         1.652399   -0.263277   0.237836 H        1 UNL1     0.0234
     107 H         0.0   0.0   0.0 H        1 UNL1     0.0234
     108 H         0.614855   2.341919   -3.304755 H        1 UNL1     0.2098
     109 H         0.043083   -2.834907   -3.16945 H        1 UNL1     0.0234
     110 H         0.711789   -1.190617   -3.418342 H        1 UNL1     0.0234
     111 H         0.431655   -1.788017   -1.82038 H        1 UNL1     0.0234
     112 H         -2.69963   0.384042   2.504163 H        1 UNL1     0.0342
     113 H         -3.319449   0.770962   0.859671 H        1 UNL1     0.0342
     114 H         -3.774542   -0.739366   1.653251 H        1 UNL1     0.0342
     115 H         -3.49439   2.708915   -1.500493 H        1 UNL1     0.0234
     116 H         -3.152053   2.041536   -3.099929 H        1 UNL1     0.0234
     117 H         -4.140244   1.186231   -1.897607 H        1 UNL1     0.0234
     118 H         -0.304087   -2.006087   -6.963431 H        1 UNL1     0.0309
     119 H         0.996113   -2.629793   -8.025754 H        1 UNL1     0.0309
     120 H         1.220767   -2.463529   -6.298316 H        1 UNL1     0.0309
     121 H         -4.168717   1.556689   -4.951328 H        1 UNL1     0.0524
     122 H         -4.063477   -0.156421   -5.376808 H        1 UNL1     0.0524
     123 H         -4.483533   0.31346   -3.710522 H        1 UNL1     0.0524
@<TRIPOS>BOND
     1     1     2    1
     2     1    42    1
     3     2     3    2
     4     3     4    1
     5     4     5    2
     6     5     7    1
     7     6    75    1
     8     6    76    1
     9     6    77    1
    10     7     9   am
    11     9    10    1
    12    10    11    2
    13    10    43    1
    14    11    14    1
    15    11    15    1
    16    12    13   ar
    17    12    27   ar
    18    12    43    1
    19    13    14    1
    20    13    30   ar
    21    14    17    2
    22    15    16    1
    23    16    17    1
    24    16    18    1
    25    16    22    1
    26    18    19    1
    27    19    20    1
    28    20    21    1
    29    21    22    1
    30    23    24    1
    31    23    88    1
    32    23    89    1
    33    24    25    1
    34    24    26    1
    35    24    90    1
    36    25    91    1
    37    25    92    1
    38    25    93    1
    39    26    94    1
    40    26    95    1
    41    26    96    1
    42    27    28   ar
    43    28    29   ar
    44    29    30   ar
    45    29    31    1
    46    30    33    1
    47    31    32    1
    48    32    33    1
    49    32    35    1
    50    34    97    1
    51    34    98    1
    52    34    99    1
    53    35    61    1
    54    36    37    1
    55    36    60    1
    56    37    38    1
    57    38    39    1
    58    39    40    1
    59    40    41    1
    60    41    42    1
    61    45   100    1
    62    47   101    1
    63    47   102    1
    64    47   103    1
    65    48   104    1
    66    49   105    1
    67    49   106    1
    68    49   107    1
    69    50   108    1
    70    51    59    1
    71    52   109    1
    72    52   110    1
    73    52   111    1
    74    53    54    1
    75    54    55    2
    76    54    56    1
    77    56   112    1
    78    56   113    1
    79    56   114    1
    80    57   115    1
    81    57   116    1
    82    57   117    1
    83    58   118    1
    84    58   119    1
    85    58   120    1
    86    59   121    1
    87    59   122    1
    88    59   123    1
    89    60    61    2
    90     1    47    1
    91     1    62    1
    92     2    63    1
    93     3    64    1
    94     4    65    1
    95     5     6    1
    96     7     8    2
    97     9    78    1
    98    15    79    1
    99    18    80    1
   100    18    81    1
   101    19    82    1
   102    19    83    1
   103    20    23    1
   104    21    84    1
   105    21    85    1
   106    22    86    1
   107    22    87    1
   108    27    45    1
   109    28    34    1
   110    32    58    1
   111    33    46    2
   112    36    51    1
   113    36    66    1
   114    37    52    1
   115    37    67    1
   116    38    53    1
   117    38    68    1
   118    42    48    1
   119    42    72    1
   120    43    44    2
   121    60    73    1
   122    61    74    1
   123    39    69    1
   124    39    57    1
   125    40    70    1
   126    40    50    1
   127    41    71    1
   128    41    49    1
