@<TRIPOS>MOLECULE
*****
 123 128 0 0 0
SMALL
GASTEIGER

@<TRIPOS>ATOM
     1 C         -0.207543   1.918423   3.774597 C.3        1 UNL1     0.0009
     2 C         -1.683491   2.072116   4.885899 C.2        1 UNL1     -0.0787
     3 C         -2.752814   2.867842   5.451066 C.2        1 UNL1     -0.0649
     4 C         -4.016164   2.351731   6.453031 C.2        1 UNL1     -0.0542
     5 C         -5.310388   2.658346   6.940934 C.2        1 UNL1     0.0115
     6 C         -6.396154   3.76707   7.012806 C.3        1 UNL1     -0.0348
     7 C         -6.191095   1.487197   7.596491 C.2        1 UNL1     0.2441
     8 O         -6.328197   1.35459   8.804855 O.2        1 UNL1     -0.2702
     9 N         -7.003822   0.783879   6.690417 N.am        1 UNL1     -0.2772
     10 C         -6.309681   -0.269014   6.140048 C.2        1 UNL1     0.1049
     11 C         -5.529746   0.020677   5.114375 C.2        1 UNL1     0.0801
     12 C         -4.863387   -2.220389   6.738131 C.ar        1 UNL1     0.0753
     13 C         -3.944709   -1.742188   5.750222 C.ar        1 UNL1     0.0305
     14 C         -4.310545   -0.680425   4.81541 C.2        1 UNL1     0.0924
     15 N         -5.454062   1.14132   4.376163 N.pl3        1 UNL1     -0.3170
     16 C         -4.567122   0.88193   3.273299 C.3        1 UNL1     0.1275
     17 N         -3.631385   -0.186326   3.784132 N.2        1 UNL1     -0.2557
     18 C         -5.395138   0.227947   2.171302 C.3        1 UNL1     0.0016
     19 C         -6.564479   1.139786   1.835477 C.3        1 UNL1     0.0026
     20 N         -6.04314   2.42934   1.403869 N.3        1 UNL1     -0.3018
     21 C         -5.182758   3.108619   2.374792 C.3        1 UNL1     0.0026
     22 C         -4.012493   2.176779   2.694248 C.3        1 UNL1     0.0016
     23 C         -7.050146   3.264619   0.780257 C.3        1 UNL1     0.0012
     24 C         -7.446995   2.696645   -0.591484 C.3        1 UNL1     -0.0339
     25 C         -7.784248   3.817787   -1.588159 C.3        1 UNL1     -0.0615
     26 C         -6.346634   1.792254   -1.1188 C.3        1 UNL1     -0.0615
     27 C         -4.55204   -3.31245   7.544719 C.ar        1 UNL1     0.1347
     28 C         -3.37423   -4.029009   7.429151 C.ar        1 UNL1     0.0342
     29 C         -2.464443   -3.51017   6.483499 C.ar        1 UNL1     0.1435
     30 C         -2.747695   -2.395233   5.693622 C.ar        1 UNL1     0.0774
     31 O         -1.320381   -4.159579   6.176257 O.3        1 UNL1     -0.4436
     32 C         -0.927264   -3.620135   4.9053 C.3        1 UNL1     0.3143
     33 C         -1.594642   -2.261889   4.827911 C.2        1 UNL1     0.2504
     34 C         -3.079717   -5.352115   8.079345 C.3        1 UNL1     -0.0327
     35 O         0.485715   -3.388205   4.95964 O.2        1 UNL1     -0.4528
     36 C         1.748779   -3.821282   1.406444 C.3        1 UNL1     0.0854
     37 C         1.307181   -3.06758   0.093262 C.3        1 UNL1     0.0236
     38 C         2.499532   -2.362461   -0.714728 C.3        1 UNL1     0.1131
     39 C         3.504427   -1.40566   0.044871 C.3        1 UNL1     0.0200
     40 C         2.938365   -0.291263   1.149466 C.3        1 UNL1     0.0661
     41 C         1.671855   0.807582   0.892363 C.3        1 UNL1     0.0091
     42 C         0.44009   1.498852   2.062963 C.3        1 UNL1     0.0661
     43 C         -6.195452   -1.570744   6.81444 C.2        1 UNL1     0.2131
     44 O         -7.17611   -2.101521   7.303646 O.2        1 UNL1     -0.2851
     45 O         -5.482343   -3.685634   8.512556 O.3        1 UNL1     -0.5056
     46 O         -1.241772   -1.283109   4.208778 O.2        1 UNL1     -0.2836
     47 C         1.025933   2.60739   4.417903 C.3        1 UNL1     -0.0566
     48 O         0.625611   2.898524   1.609512 O.3        1 UNL1     -0.3909
     49 C         0.916523   0.399049   -0.352655 C.3        1 UNL1     -0.0577
     50 O         2.820748   -0.872539   2.432434 O.3        1 UNL1     -0.3910
     51 O         3.090142   -3.638818   1.799995 O.3        1 UNL1     -0.3753
     52 C         -0.098778   -2.401408   0.249614 C.3        1 UNL1     -0.0564
     53 O         2.124519   -1.963691   -2.112109 O.3        1 UNL1     -0.4608
     54 C         2.755188   -1.005559   -2.86189 C.2        1 UNL1     0.3042
     55 O         2.370637   0.141858   -3.084136 O.2        1 UNL1     -0.2512
     56 C         4.086705   -1.444236   -3.401648 C.3        1 UNL1     0.0332
     57 C         4.783634   -2.275121   0.452107 C.3        1 UNL1     -0.0567
     58 C         -1.5458   -4.541967   3.828653 C.3        1 UNL1     0.0210
     59 C         3.930969   -4.775534   1.608288 C.3        1 UNL1     0.0372
     60 C         0.908757   -3.543957   2.603363 C.2        1 UNL1     -0.0208
     61 C         1.259003   -3.277891   3.862442 C.2        1 UNL1     0.0882
     62 H         -0.144582   0.85548   4.037084 H        1 UNL1     0.0365
     63 H         -1.698   1.080667   5.343381 H        1 UNL1     0.0576
     64 H         -2.933063   3.895878   5.12895 H        1 UNL1     0.0615
     65 H         -3.70087   1.356621   6.778345 H        1 UNL1     0.0622
     66 H         1.602754   -4.88599   1.175969 H        1 UNL1     0.0645
     67 H         1.022879   -3.879139   -0.598912 H        1 UNL1     0.0362
     68 H         3.090153   -3.251387   -0.983985 H        1 UNL1     0.0741
     69 H         4.009418   -0.783561   -0.68203 H        1 UNL1     0.0359
     70 H         3.823533   0.368914   1.224999 H        1 UNL1     0.0600
     71 H         2.245101   1.680019   0.521957 H        1 UNL1     0.0348
     72 H         1.267111   1.120664   2.681287 H        1 UNL1     0.0602
     73 H         -0.111391   -3.709226   2.359982 H        1 UNL1     0.0628
     74 H         2.273683   -3.039281   4.182953 H        1 UNL1     0.1022
     75 H         -5.941902   4.741647   7.314286 H        1 UNL1     0.0279
     76 H         -6.894241   4.019549   6.079407 H        1 UNL1     0.0279
     77 H         -7.117909   3.603379   7.826425 H        1 UNL1     0.0279
     78 H         -7.279875   1.400281   5.928892 H        1 UNL1     0.1553
     79 H         -6.179016   1.834164   4.339528 H        1 UNL1     0.1484
     80 H         -4.755672   0.058047   1.296668 H        1 UNL1     0.0317
     81 H         -5.761054   -0.754732   2.487686 H        1 UNL1     0.0317
     82 H         -7.248985   1.255078   2.688748 H        1 UNL1     0.0428
     83 H         -7.142583   0.653594   1.049053 H        1 UNL1     0.0428
     84 H         -4.740683   4.035455   1.996169 H        1 UNL1     0.0428
     85 H         -5.742281   3.424559   3.266102 H        1 UNL1     0.0428
     86 H         -3.339165   2.754669   3.299774 H        1 UNL1     0.0317
     87 H         -3.431107   1.980158   1.785168 H        1 UNL1     0.0317
     88 H         -7.937666   3.269702   1.426458 H        1 UNL1     0.0429
     89 H         -6.7087   4.304262   0.694638 H        1 UNL1     0.0429
     90 H         -8.329698   2.056983   -0.473666 H        1 UNL1     0.0308
     91 H         -7.033656   4.613377   -1.560764 H        1 UNL1     0.0233
     92 H         -7.85193   3.423437   -2.604779 H        1 UNL1     0.0233
     93 H         -8.752866   4.286859   -1.377009 H        1 UNL1     0.0233
     94 H         -6.423157   1.699669   -2.207565 H        1 UNL1     0.0233
     95 H         -5.367553   2.219575   -0.884793 H        1 UNL1     0.0233
     96 H         -6.408704   0.791728   -0.681692 H        1 UNL1     0.0233
     97 H         -2.953031   -5.258868   9.153816 H        1 UNL1     0.0280
     98 H         -3.893367   -6.074735   7.93426 H        1 UNL1     0.0280
     99 H         -2.152222   -5.772423   7.657221 H        1 UNL1     0.0280
     100 H         -5.79698   -2.977648   9.046769 H        1 UNL1     0.2922
     101 H         1.705561   1.851745   4.811303 H        1 UNL1     0.0236
     102 H         0.758925   3.348772   5.170261 H        1 UNL1     0.0236
     103 H         1.623918   3.162619   3.676063 H        1 UNL1     0.0236
     104 H         -0.017423   3.063967   0.8925 H        1 UNL1     0.2098
     105 H         0.6846   1.219734   -1.02682 H        1 UNL1     0.0234
     106 H         1.361835   -0.428737   -0.904375 H        1 UNL1     0.0234
     107 H         0.0   -0.0   0.0 H        1 UNL1     0.0234
     108 H         2.508932   -0.174241   3.03982 H        1 UNL1     0.2098
     109 H         -0.886972   -3.137832   0.45971 H        1 UNL1     0.0234
     110 H         -0.119939   -1.614637   1.011379 H        1 UNL1     0.0234
     111 H         -0.408481   -1.88901   -0.670972 H        1 UNL1     0.0234
     112 H         4.871857   -0.76796   -3.050177 H        1 UNL1     0.0342
     113 H         4.314496   -2.476593   -3.140508 H        1 UNL1     0.0342
     114 H         4.05119   -1.37823   -4.497798 H        1 UNL1     0.0342
     115 H         5.435926   -1.737833   1.154265 H        1 UNL1     0.0234
     116 H         4.539927   -3.239367   0.902535 H        1 UNL1     0.0234
     117 H         5.477315   -2.45671   -0.386805 H        1 UNL1     0.0234
     118 H         -0.778477   -5.131847   3.29737 H        1 UNL1     0.0309
     119 H         -2.305575   -5.220624   4.229115 H        1 UNL1     0.0309
     120 H         -2.0342   -3.980487   3.024718 H        1 UNL1     0.0309
     121 H         4.748725   -4.705357   2.325023 H        1 UNL1     0.0524
     122 H         3.402202   -5.724101   1.799766 H        1 UNL1     0.0524
     123 H         4.321096   -4.787759   0.594511 H        1 UNL1     0.0524
@<TRIPOS>BOND
     1     1     2    1
     2     1    42    1
     3     2     3    2
     4     3     4    1
     5     4     5    2
     6     5     7    1
     7     6    75    1
     8     6    76    1
     9     6    77    1
    10     7     9   am
    11     9    10    1
    12    10    11    2
    13    10    43    1
    14    11    14    1
    15    11    15    1
    16    12    13   ar
    17    12    27   ar
    18    12    43    1
    19    13    14    1
    20    13    30   ar
    21    14    17    2
    22    15    16    1
    23    16    17    1
    24    16    18    1
    25    16    22    1
    26    18    19    1
    27    19    20    1
    28    20    21    1
    29    21    22    1
    30    23    24    1
    31    23    88    1
    32    23    89    1
    33    24    25    1
    34    24    26    1
    35    24    90    1
    36    25    91    1
    37    25    92    1
    38    25    93    1
    39    26    94    1
    40    26    95    1
    41    26    96    1
    42    27    28   ar
    43    28    29   ar
    44    29    30   ar
    45    29    31    1
    46    30    33    1
    47    31    32    1
    48    32    33    1
    49    32    35    1
    50    34    97    1
    51    34    98    1
    52    34    99    1
    53    35    61    1
    54    36    37    1
    55    36    60    1
    56    37    38    1
    57    38    39    1
    58    39    40    1
    59    40    41    1
    60    41    42    1
    61    45   100    1
    62    47   101    1
    63    47   102    1
    64    47   103    1
    65    48   104    1
    66    49   105    1
    67    49   106    1
    68    49   107    1
    69    50   108    1
    70    51    59    1
    71    52   109    1
    72    52   110    1
    73    52   111    1
    74    53    54    1
    75    54    55    2
    76    54    56    1
    77    56   112    1
    78    56   113    1
    79    56   114    1
    80    57   115    1
    81    57   116    1
    82    57   117    1
    83    58   118    1
    84    58   119    1
    85    58   120    1
    86    59   121    1
    87    59   122    1
    88    59   123    1
    89    60    61    2
    90     1    47    1
    91     1    62    1
    92     2    63    1
    93     3    64    1
    94     4    65    1
    95     5     6    1
    96     7     8    2
    97     9    78    1
    98    15    79    1
    99    18    80    1
   100    18    81    1
   101    19    82    1
   102    19    83    1
   103    20    23    1
   104    21    84    1
   105    21    85    1
   106    22    86    1
   107    22    87    1
   108    27    45    1
   109    28    34    1
   110    32    58    1
   111    33    46    2
   112    36    51    1
   113    36    66    1
   114    37    52    1
   115    37    67    1
   116    38    53    1
   117    38    68    1
   118    42    48    1
   119    42    72    1
   120    43    44    2
   121    60    73    1
   122    61    74    1
   123    39    69    1
   124    39    57    1
   125    40    70    1
   126    40    50    1
   127    41    71    1
   128    41    49    1
