@<TRIPOS>MOLECULE
*****
 123 128 0 0 0
SMALL
GASTEIGER

@<TRIPOS>ATOM
     1 C         3.555579   0.68401   2.225933 C.3        1 UNL1     0.0009
     2 C         3.715856   1.500919   3.882438 C.2        1 UNL1     -0.0787
     3 C         4.09223   2.643147   4.688481 C.2        1 UNL1     -0.0649
     4 C         3.867744   2.86198   6.352234 C.2        1 UNL1     -0.0542
     5 C         3.794723   3.814281   7.398594 C.2        1 UNL1     0.0115
     6 C         4.031834   5.306887   7.758075 C.3        1 UNL1     -0.0348
     7 C         3.115472   3.389431   8.789676 C.2        1 UNL1     0.2441
     8 O         3.763833   3.105545   9.787455 O.2        1 UNL1     -0.2702
     9 N         1.730185   3.617104   8.862462 N.am        1 UNL1     -0.2772
     10 C         1.038809   2.529516   8.380305 C.2        1 UNL1     0.1049
     11 C         0.893411   2.466846   7.06914 C.2        1 UNL1     0.0801
     12 C         0.887598   0.03873   8.554809 C.ar        1 UNL1     0.0753
     13 C         0.943926   0.013545   7.124843 C.ar        1 UNL1     0.0305
     14 C         0.815959   1.234513   6.332435 C.2        1 UNL1     0.0924
     15 N         1.127547   3.398001   6.128578 N.pl3        1 UNL1     -0.3170
     16 C         0.644768   2.885979   4.873584 C.3        1 UNL1     0.1275
     17 N         0.746421   1.38666   5.012987 N.2        1 UNL1     -0.2557
     18 C         -0.845463   3.204243   4.798608 C.3        1 UNL1     0.0016
     19 C         -1.032522   4.702242   4.979156 C.3        1 UNL1     0.0026
     20 N         -0.295381   5.395305   3.931627 N.3        1 UNL1     -0.3018
     21 C         1.139001   5.104346   3.884116 C.3        1 UNL1     0.0026
     22 C         1.30357   3.595025   3.697667 C.3        1 UNL1     0.0016
     23 C         -0.644755   6.798245   3.829946 C.3        1 UNL1     0.0012
     24 C         -2.066079   6.960025   3.268319 C.3        1 UNL1     -0.0339
     25 C         -2.980013   7.703186   4.256496 C.3        1 UNL1     -0.0615
     26 C         -2.016968   7.657032   1.919783 C.3        1 UNL1     -0.0615
     27 C         0.88882   -1.139299   9.298022 C.ar        1 UNL1     0.1347
     28 C         0.903407   -2.397943   8.723868 C.ar        1 UNL1     0.0342
     29 C         1.008179   -2.397619   7.316677 C.ar        1 UNL1     0.1435
     30 C         1.04441   -1.225151   6.560883 C.ar        1 UNL1     0.0774
     31 O         0.923203   -3.541738   6.60339 O.3        1 UNL1     -0.4436
     32 C         0.596499   -3.115647   5.272006 C.3        1 UNL1     0.3143
     33 C         1.075314   -1.680493   5.186665 C.2        1 UNL1     0.2504
     34 C         0.653913   -3.696374   9.439359 C.3        1 UNL1     -0.0327
     35 O         1.405762   -3.879803   4.369558 O.2        1 UNL1     -0.4528
     36 C         -0.617705   -4.200343   1.174104 C.3        1 UNL1     0.0854
     37 C         -1.21494   -3.066262   0.255033 C.3        1 UNL1     0.0236
     38 C         -0.780085   -3.146575   -1.286458 C.3        1 UNL1     0.1131
     39 C         0.749909   -3.282249   -1.664582 C.3        1 UNL1     0.0200
     40 C         1.898697   -2.360609   -0.881446 C.3        1 UNL1     0.0661
     41 C         1.833672   -0.682076   -0.644994 C.3        1 UNL1     0.0091
     42 C         2.469768   0.351411   0.730757 C.3        1 UNL1     0.0661
     43 C         0.737501   1.358335   9.216906 C.2        1 UNL1     0.2131
     44 O         0.295111   1.500177   10.342477 O.2        1 UNL1     -0.2851
     45 O         0.878186   -1.025936   10.686717 O.3        1 UNL1     -0.5056
     46 O         1.424905   -1.059717   4.207749 O.2        1 UNL1     -0.2836
     47 C         4.948488   0.232393   1.710346 C.3        1 UNL1     -0.0566
     48 O         3.109477   1.347733   -0.162121 O.3        1 UNL1     -0.3909
     49 C         0.432044   -0.200659   -0.946939 C.3        1 UNL1     -0.0577
     50 O         2.331041   -2.999027   0.303132 O.3        1 UNL1     -0.3910
     51 O         0.351278   -5.031492   0.576027 O.3        1 UNL1     -0.3753
     52 C         -1.335662   -1.704963   1.014797 C.3        1 UNL1     -0.0564
     53 O         -1.619006   -2.293411   -2.192355 O.3        1 UNL1     -0.4608
     54 C         -1.58793   -2.318641   -3.562146 C.2        1 UNL1     0.3042
     55 O         -1.042951   -1.509477   -4.311872 O.2        1 UNL1     -0.2512
     56 C         -2.263858   -3.521141   -4.156982 C.3        1 UNL1     0.0332
     57 C         1.058691   -4.837453   -1.874749 C.3        1 UNL1     -0.0567
     58 C         -0.946707   -3.13339   5.173367 C.3        1 UNL1     0.0210
     59 C         -0.09091   -6.35747   0.289466 C.3        1 UNL1     0.0372
     60 C         -0.041461   -3.727445   2.462309 C.2        1 UNL1     -0.0208
     61 C         1.101232   -4.051574   3.068888 C.2        1 UNL1     0.0882
     62 H         3.107427   -0.186507   2.719968 H        1 UNL1     0.0365
     63 H         3.404199   0.687845   4.541413 H        1 UNL1     0.0576
     64 H         4.427602   3.578406   4.234692 H        1 UNL1     0.0615
     65 H         3.614972   1.861932   6.714856 H        1 UNL1     0.0622
     66 H         -1.482971   -4.823073   1.441628 H        1 UNL1     0.0645
     67 H         -2.289807   -3.309887   0.192833 H        1 UNL1     0.0362
     68 H         -1.233904   -4.112588   -1.555513 H        1 UNL1     0.0741
     69 H         0.879607   -2.993918   -2.699209 H        1 UNL1     0.0359
     70 H         2.746724   -2.47617   -1.583269 H        1 UNL1     0.0600
     71 H         2.379774   -0.338734   -1.545465 H        1 UNL1     0.0348
     72 H         3.013818   -0.602349   0.791315 H        1 UNL1     0.0602
     73 H         -0.757968   -3.127339   2.966033 H        1 UNL1     0.0628
     74 H         1.910469   -4.612729   2.600403 H        1 UNL1     0.1022
     75 H         5.026534   5.647502   7.381793 H        1 UNL1     0.0279
     76 H         3.352204   6.027852   7.309318 H        1 UNL1     0.0279
     77 H         4.141353   5.471525   8.840018 H        1 UNL1     0.0279
     78 H         1.48424   4.417553   8.283783 H        1 UNL1     0.1553
     79 H         1.201577   4.379671   6.322944 H        1 UNL1     0.1484
     80 H         -1.235109   2.865705   3.830964 H        1 UNL1     0.0317
     81 H         -1.401341   2.65857   5.568603 H        1 UNL1     0.0317
     82 H         -0.710302   5.035468   5.976676 H        1 UNL1     0.0428
     83 H         -2.102158   4.906934   4.924098 H        1 UNL1     0.0428
     84 H         1.654194   5.574311   3.040599 H        1 UNL1     0.0428
     85 H         1.66437   5.492736   4.767551 H        1 UNL1     0.0428
     86 H         2.353373   3.436219   3.534319 H        1 UNL1     0.0317
     87 H         0.849106   3.282843   2.749458 H        1 UNL1     0.0317
     88 H         -0.61605   7.231314   4.838371 H        1 UNL1     0.0429
     89 H         0.085878   7.348148   3.222858 H        1 UNL1     0.0429
     90 H         -2.491913   5.967854   3.077336 H        1 UNL1     0.0308
     91 H         -2.412157   8.409863   4.869073 H        1 UNL1     0.0233
     92 H         -3.767322   8.242034   3.724146 H        1 UNL1     0.0233
     93 H         -3.489835   7.021162   4.947696 H        1 UNL1     0.0233
     94 H         -2.985691   8.11721   1.696963 H        1 UNL1     0.0233
     95 H         -1.263177   8.449182   1.935853 H        1 UNL1     0.0233
     96 H         -1.774728   6.955497   1.116578 H        1 UNL1     0.0233
     97 H         -0.186554   -4.239228   9.017273 H        1 UNL1     0.0280
     98 H         1.513577   -4.376151   9.375036 H        1 UNL1     0.0280
     99 H         0.437941   -3.496761   10.501718 H        1 UNL1     0.0280
     100 H         1.518536   -0.431262   11.035912 H        1 UNL1     0.2922
     101 H         5.049184   -0.847093   1.820916 H        1 UNL1     0.0236
     102 H         5.773245   0.770014   2.176955 H        1 UNL1     0.0236
     103 H         5.069364   0.415499   0.629581 H        1 UNL1     0.0236
     104 H         3.670359   1.924112   0.393008 H        1 UNL1     0.2098
     105 H         0.387797   0.713678   -1.533319 H        1 UNL1     0.0234
     106 H         -0.226622   -0.956208   -1.374995 H        1 UNL1     0.0234
     107 H         -0.0   0.0   0.0 H        1 UNL1     0.0234
     108 H         2.095917   -3.943762   0.225928 H        1 UNL1     0.2098
     109 H         -0.735529   -0.912462   0.546296 H        1 UNL1     0.0234
     110 H         -2.370698   -1.364004   1.125203 H        1 UNL1     0.0234
     111 H         -0.969815   -1.783849   2.047212 H        1 UNL1     0.0234
     112 H         -2.185231   -3.490589   -5.247959 H        1 UNL1     0.0342
     113 H         -1.862765   -4.453451   -3.76231 H        1 UNL1     0.0342
     114 H         -3.330061   -3.480089   -3.894893 H        1 UNL1     0.0342
     115 H         2.041373   -4.999669   -2.338656 H        1 UNL1     0.0234
     116 H         1.029125   -5.424248   -0.954506 H        1 UNL1     0.0234
     117 H         0.393442   -5.322658   -2.609569 H        1 UNL1     0.0234
     118 H         -1.310557   -3.937859   4.510458 H        1 UNL1     0.0309
     119 H         -1.438472   -3.221977   6.147288 H        1 UNL1     0.0309
     120 H         -1.34891   -2.224771   4.712118 H        1 UNL1     0.0309
     121 H         0.786738   -7.003249   0.281741 H        1 UNL1     0.0524
     122 H         -0.780585   -6.743824   1.058307 H        1 UNL1     0.0524
     123 H         -0.587038   -6.387706   -0.676473 H        1 UNL1     0.0524
@<TRIPOS>BOND
     1     1     2    1
     2     1    42    1
     3     2     3    2
     4     3     4    1
     5     4     5    2
     6     5     7    1
     7     6    75    1
     8     6    76    1
     9     6    77    1
    10     7     9   am
    11     9    10    1
    12    10    11    2
    13    10    43    1
    14    11    14    1
    15    11    15    1
    16    12    13   ar
    17    12    27   ar
    18    12    43    1
    19    13    14    1
    20    13    30   ar
    21    14    17    2
    22    15    16    1
    23    16    17    1
    24    16    18    1
    25    16    22    1
    26    18    19    1
    27    19    20    1
    28    20    21    1
    29    21    22    1
    30    23    24    1
    31    23    88    1
    32    23    89    1
    33    24    25    1
    34    24    26    1
    35    24    90    1
    36    25    91    1
    37    25    92    1
    38    25    93    1
    39    26    94    1
    40    26    95    1
    41    26    96    1
    42    27    28   ar
    43    28    29   ar
    44    29    30   ar
    45    29    31    1
    46    30    33    1
    47    31    32    1
    48    32    33    1
    49    32    35    1
    50    34    97    1
    51    34    98    1
    52    34    99    1
    53    35    61    1
    54    36    37    1
    55    36    60    1
    56    37    38    1
    57    38    39    1
    58    39    40    1
    59    40    41    1
    60    41    42    1
    61    45   100    1
    62    47   101    1
    63    47   102    1
    64    47   103    1
    65    48   104    1
    66    49   105    1
    67    49   106    1
    68    49   107    1
    69    50   108    1
    70    51    59    1
    71    52   109    1
    72    52   110    1
    73    52   111    1
    74    53    54    1
    75    54    55    2
    76    54    56    1
    77    56   112    1
    78    56   113    1
    79    56   114    1
    80    57   115    1
    81    57   116    1
    82    57   117    1
    83    58   118    1
    84    58   119    1
    85    58   120    1
    86    59   121    1
    87    59   122    1
    88    59   123    1
    89    60    61    2
    90     1    47    1
    91     1    62    1
    92     2    63    1
    93     3    64    1
    94     4    65    1
    95     5     6    1
    96     7     8    2
    97     9    78    1
    98    15    79    1
    99    18    80    1
   100    18    81    1
   101    19    82    1
   102    19    83    1
   103    20    23    1
   104    21    84    1
   105    21    85    1
   106    22    86    1
   107    22    87    1
   108    27    45    1
   109    28    34    1
   110    32    58    1
   111    33    46    2
   112    36    51    1
   113    36    66    1
   114    37    52    1
   115    37    67    1
   116    38    53    1
   117    38    68    1
   118    42    48    1
   119    42    72    1
   120    43    44    2
   121    60    73    1
   122    61    74    1
   123    39    69    1
   124    39    57    1
   125    40    70    1
   126    40    50    1
   127    41    71    1
   128    41    49    1
