@<TRIPOS>MOLECULE
*****
 123 128 0 0 0
SMALL
GASTEIGER

@<TRIPOS>ATOM
     1 C         4.162755   -1.597537   -0.417674 C.3        1 UNL1     0.0009
     2 C         4.773407   -3.076793   -1.35359 C.2        1 UNL1     -0.0787
     3 C         5.340783   -4.408697   -1.366344 C.2        1 UNL1     -0.0649
     4 C         5.597461   -5.417677   -2.701423 C.2        1 UNL1     -0.0542
     5 C         5.807127   -6.753603   -3.12382 C.2        1 UNL1     0.0115
     6 C         6.105924   -8.195653   -2.629315 C.3        1 UNL1     -0.0348
     7 C         5.563591   -7.128146   -4.665701 C.2        1 UNL1     0.2441
     8 O         6.476254   -7.275285   -5.466902 O.2        1 UNL1     -0.2702
     9 N         4.252672   -7.531472   -4.973872 N.am        1 UNL1     -0.2772
     10 C         3.475128   -6.439845   -5.28548 C.2        1 UNL1     0.1049
     11 C         2.961802   -5.779982   -4.263082 C.2        1 UNL1     0.0801
     12 C         3.43238   -4.371394   -6.691544 C.ar        1 UNL1     0.0753
     13 C         3.077496   -3.662916   -5.499603 C.ar        1 UNL1     0.0305
     14 C         2.702504   -4.365766   -4.274681 C.2        1 UNL1     0.0924
     15 N         2.897328   -6.115397   -2.963133 N.pl3        1 UNL1     -0.3170
     16 C         2.086306   -5.132248   -2.295364 C.3        1 UNL1     0.1275
     17 N         2.254978   -3.879785   -3.120354 N.2        1 UNL1     -0.2557
     18 C         0.630661   -5.557179   -2.463388 C.3        1 UNL1     0.0016
     19 C         0.4718   -6.971058   -1.927384 C.3        1 UNL1     0.0026
     20 N         0.863527   -6.986341   -0.524763 N.3        1 UNL1     -0.3018
     21 C         2.230037   -6.533853   -0.255926 C.3        1 UNL1     0.0026
     22 C         2.365901   -5.110073   -0.798406 C.3        1 UNL1     0.0016
     23 C         0.470376   -8.203235   0.157326 C.3        1 UNL1     0.0012
     24 C         -1.055303   -8.252074   0.3353 C.3        1 UNL1     -0.0339
     25 C         -1.522995   -9.640786   0.800917 C.3        1 UNL1     -0.0615
     26 C         -1.503114   -7.161354   1.292679 C.3        1 UNL1     -0.0615
     27 C         3.670978   -3.698162   -7.887348 C.ar        1 UNL1     0.1347
     28 C         3.546933   -2.326957   -8.023219 C.ar        1 UNL1     0.0342
     29 C         3.24444   -1.645567   -6.82515 C.ar        1 UNL1     0.1435
     30 C         3.038234   -2.30337   -5.611893 C.ar        1 UNL1     0.0774
     31 O         2.982793   -0.320259   -6.814918 O.3        1 UNL1     -0.4436
     32 C         2.27977   -0.098897   -5.582996 C.3        1 UNL1     0.3143
     33 C         2.68396   -1.249758   -4.683906 C.2        1 UNL1     0.2504
     34 C         3.53995   -1.566491   -9.320039 C.3        1 UNL1     -0.0327
     35 O         2.812623   1.095275   -4.9971 O.2        1 UNL1     -0.4528
     36 C         -0.033771   2.644336   -3.020603 C.3        1 UNL1     0.0854
     37 C         -0.892726   2.019662   -1.854626 C.3        1 UNL1     0.0236
     38 C         -0.915785   2.87573   -0.498765 C.3        1 UNL1     0.1131
     39 C         0.444415   3.36182   0.146092 C.3        1 UNL1     0.0200
     40 C         1.74976   2.327983   0.244535 C.3        1 UNL1     0.0661
     41 C         1.720023   0.745263   0.854226 C.3        1 UNL1     0.0091
     42 C         2.701563   -0.730722   0.38152 C.3        1 UNL1     0.0661
     43 C         3.450518   -5.854172   -6.634085 C.2        1 UNL1     0.2131
     44 O         3.346003   -6.567099   -7.61569 O.2        1 UNL1     -0.2851
     45 O         4.055972   -4.458228   -8.989854 O.3        1 UNL1     -0.5056
     46 O         2.725601   -1.28234   -3.474337 O.2        1 UNL1     -0.2836
     47 C         5.3589   -0.787726   0.151031 C.3        1 UNL1     -0.0566
     48 O         3.037882   -1.09569   1.778948 O.3        1 UNL1     -0.3909
     49 C         0.28086   0.29696   0.978035 C.3        1 UNL1     -0.0577
     50 O         2.516394   2.374366   -0.941991 O.3        1 UNL1     -0.3910
     51 O         0.740617   3.77186   -2.679367 O.3        1 UNL1     -0.3753
     52 C         -0.819361   0.457757   -1.850354 C.3        1 UNL1     -0.0564
     53 O         -1.996602   2.459805   0.455787 O.3        1 UNL1     -0.4608
     54 C         -2.799   3.31184   1.168615 C.2        1 UNL1     0.3042
     55 O         -2.648665   4.522789   1.32622 O.2        1 UNL1     -0.2512
     56 C         -4.011946   2.646747   1.754384 C.3        1 UNL1     0.0332
     57 C         0.712594   4.854584   -0.361758 C.3        1 UNL1     -0.0567
     58 C         0.773639   -0.226367   -5.909876 C.3        1 UNL1     0.0210
     59 C         1.018097   4.658463   -3.762328 C.3        1 UNL1     0.0372
     60 C         0.877109   1.690984   -3.71095 C.2        1 UNL1     -0.0208
     61 C         2.15215   1.825628   -4.078216 C.2        1 UNL1     0.0882
     62 H         3.893118   -1.129055   -1.371892 H        1 UNL1     0.0365
     63 H         4.680538   -2.719958   -2.381459 H        1 UNL1     0.0576
     64 H         5.512553   -4.966581   -0.443106 H        1 UNL1     0.0615
     65 H         5.480072   -4.749861   -3.559167 H        1 UNL1     0.0622
     66 H         -0.773002   2.953292   -3.77302 H        1 UNL1     0.0645
     67 H         -1.935066   2.129267   -2.201143 H        1 UNL1     0.0362
     68 H         -1.407308   3.789379   -0.866424 H        1 UNL1     0.0741
     69 H         0.266427   3.618297   1.181924 H        1 UNL1     0.0359
     70 H         2.363602   2.866514   0.991691 H        1 UNL1     0.0600
     71 H         1.97817   0.94127   1.913423 H        1 UNL1     0.0348
     72 H         3.260022   0.138332   0.004446 H        1 UNL1     0.0602
     73 H         0.322396   0.84064   -4.021527 H        1 UNL1     0.0628
     74 H         2.804963   2.636694   -3.753802 H        1 UNL1     0.1022
     75 H         6.148681   -8.226593   -1.513856 H        1 UNL1     0.0279
     76 H         5.35707   -8.951206   -2.856089 H        1 UNL1     0.0279
     77 H         7.117931   -8.535048   -2.894559 H        1 UNL1     0.0279
     78 H         3.834656   -7.984053   -4.163619 H        1 UNL1     0.1553
     79 H         3.003334   -7.053901   -2.624155 H        1 UNL1     0.1484
     80 H         -0.012517   -4.850282   -1.925441 H        1 UNL1     0.0317
     81 H         0.330032   -5.516107   -3.515807 H        1 UNL1     0.0317
     82 H         1.059054   -7.695819   -2.510279 H        1 UNL1     0.0428
     83 H         -0.572869   -7.25478   -2.058599 H        1 UNL1     0.0428
     84 H         2.472229   -6.479031   0.809977 H        1 UNL1     0.0428
     85 H         2.978074   -7.227467   -0.664162 H        1 UNL1     0.0428
     86 H         3.328087   -4.764966   -0.468123 H        1 UNL1     0.0317
     87 H         1.665645   -4.443347   -0.280512 H        1 UNL1     0.0317
     88 H         0.777498   -9.056263   -0.461797 H        1 UNL1     0.0429
     89 H         0.984954   -8.303922   1.121611 H        1 UNL1     0.0429
     90 H         -1.536226   -8.024987   -0.623532 H        1 UNL1     0.0308
     91 H         -0.906862   -10.012262   1.625228 H        1 UNL1     0.0233
     92 H         -2.567551   -9.609847   1.119592 H        1 UNL1     0.0233
     93 H         -1.46932   -10.389383   0.001194 H        1 UNL1     0.0233
     94 H         -2.478062   -7.413814   1.723464 H        1 UNL1     0.0233
     95 H         -0.786275   -7.066942   2.113161 H        1 UNL1     0.0233
     96 H         -1.588742   -6.196039   0.78592 H        1 UNL1     0.0233
     97 H         4.518264   -1.555518   -9.791221 H        1 UNL1     0.0280
     98 H         2.856801   -2.009978   -10.056167 H        1 UNL1     0.0280
     99 H         3.233905   -0.523843   -9.134795 H        1 UNL1     0.0280
     100 H         3.388316   -5.032225   -9.322095 H        1 UNL1     0.2922
     101 H         4.988258   0.054629   0.734743 H        1 UNL1     0.0236
     102 H         6.067261   -0.474275   -0.615099 H        1 UNL1     0.0236
     103 H         5.958421   -1.379309   0.862928 H        1 UNL1     0.0236
     104 H         3.944689   -0.777785   1.956737 H        1 UNL1     0.2098
     105 H         0.130371   -0.552351   1.639725 H        1 UNL1     0.0234
     106 H         -0.424817   1.092263   1.2177 H        1 UNL1     0.0234
     107 H         -0.0   0.0   0.0 H        1 UNL1     0.0234
     108 H         2.836039   1.468188   -1.116458 H        1 UNL1     0.2098
     109 H         0.171519   0.087051   -2.147753 H        1 UNL1     0.0234
     110 H         -1.102305   0.016225   -0.888722 H        1 UNL1     0.0234
     111 H         -1.528063   0.017344   -2.564303 H        1 UNL1     0.0234
     112 H         -4.190827   3.023402   2.766055 H        1 UNL1     0.0342
     113 H         -4.892991   2.776549   1.127682 H        1 UNL1     0.0342
     114 H         -3.810897   1.569026   1.826918 H        1 UNL1     0.0342
     115 H         -0.022235   5.167487   -1.116282 H        1 UNL1     0.0234
     116 H         0.705027   5.602271   0.433827 H        1 UNL1     0.0234
     117 H         1.65572   4.965185   -0.924095 H        1 UNL1     0.0234
     118 H         0.272913   0.756921   -5.947617 H        1 UNL1     0.0309
     119 H         0.580726   -0.762623   -6.844443 H        1 UNL1     0.0309
     120 H         0.218688   -0.762715   -5.132401 H        1 UNL1     0.0309
     121 H         1.941056   5.187705   -3.526942 H        1 UNL1     0.0524
     122 H         1.176323   4.121634   -4.712494 H        1 UNL1     0.0524
     123 H         0.202529   5.364951   -3.888098 H        1 UNL1     0.0524
@<TRIPOS>BOND
     1     1     2    1
     2     1    42    1
     3     2     3    2
     4     3     4    1
     5     4     5    2
     6     5     7    1
     7     6    75    1
     8     6    76    1
     9     6    77    1
    10     7     9   am
    11     9    10    1
    12    10    11    2
    13    10    43    1
    14    11    14    1
    15    11    15    1
    16    12    13   ar
    17    12    27   ar
    18    12    43    1
    19    13    14    1
    20    13    30   ar
    21    14    17    2
    22    15    16    1
    23    16    17    1
    24    16    18    1
    25    16    22    1
    26    18    19    1
    27    19    20    1
    28    20    21    1
    29    21    22    1
    30    23    24    1
    31    23    88    1
    32    23    89    1
    33    24    25    1
    34    24    26    1
    35    24    90    1
    36    25    91    1
    37    25    92    1
    38    25    93    1
    39    26    94    1
    40    26    95    1
    41    26    96    1
    42    27    28   ar
    43    28    29   ar
    44    29    30   ar
    45    29    31    1
    46    30    33    1
    47    31    32    1
    48    32    33    1
    49    32    35    1
    50    34    97    1
    51    34    98    1
    52    34    99    1
    53    35    61    1
    54    36    37    1
    55    36    60    1
    56    37    38    1
    57    38    39    1
    58    39    40    1
    59    40    41    1
    60    41    42    1
    61    45   100    1
    62    47   101    1
    63    47   102    1
    64    47   103    1
    65    48   104    1
    66    49   105    1
    67    49   106    1
    68    49   107    1
    69    50   108    1
    70    51    59    1
    71    52   109    1
    72    52   110    1
    73    52   111    1
    74    53    54    1
    75    54    55    2
    76    54    56    1
    77    56   112    1
    78    56   113    1
    79    56   114    1
    80    57   115    1
    81    57   116    1
    82    57   117    1
    83    58   118    1
    84    58   119    1
    85    58   120    1
    86    59   121    1
    87    59   122    1
    88    59   123    1
    89    60    61    2
    90     1    47    1
    91     1    62    1
    92     2    63    1
    93     3    64    1
    94     4    65    1
    95     5     6    1
    96     7     8    2
    97     9    78    1
    98    15    79    1
    99    18    80    1
   100    18    81    1
   101    19    82    1
   102    19    83    1
   103    20    23    1
   104    21    84    1
   105    21    85    1
   106    22    86    1
   107    22    87    1
   108    27    45    1
   109    28    34    1
   110    32    58    1
   111    33    46    2
   112    36    51    1
   113    36    66    1
   114    37    52    1
   115    37    67    1
   116    38    53    1
   117    38    68    1
   118    42    48    1
   119    42    72    1
   120    43    44    2
   121    60    73    1
   122    61    74    1
   123    39    69    1
   124    39    57    1
   125    40    70    1
   126    40    50    1
   127    41    71    1
   128    41    49    1
