@<TRIPOS>MOLECULE
*****
 123 128 0 0 0
SMALL
GASTEIGER

@<TRIPOS>ATOM
     1 C         4.971996   2.238859   0.527748 C.3        1 UNL1     0.0009
     2 C         6.359143   3.115599   -0.334915 C.2        1 UNL1     -0.0787
     3 C         7.671356   3.094001   -0.946205 C.2        1 UNL1     -0.0649
     4 C         8.457188   4.348299   -1.768131 C.2        1 UNL1     -0.0542
     5 C         9.482946   4.667611   -2.691678 C.2        1 UNL1     0.0115
     6 C         10.70132   4.092362   -3.464968 C.3        1 UNL1     -0.0348
     7 C         9.460898   6.102112   -3.411891 C.2        1 UNL1     0.2441
     8 O         10.185534   7.027804   -3.07348 O.2        1 UNL1     -0.2702
     9 N         8.744119   6.143409   -4.620475 N.am        1 UNL1     -0.2772
     10 C         7.418174   6.424153   -4.383041 C.2        1 UNL1     0.1049
     11 C         6.657999   5.399064   -4.043116 C.2        1 UNL1     0.0801
     12 C         5.913483   7.997851   -3.151491 C.ar        1 UNL1     0.0753
     13 C         5.248044   6.838005   -2.641042 C.ar        1 UNL1     0.0305
     14 C         5.516743   5.504655   -3.174921 C.2        1 UNL1     0.0924
     15 N         6.914162   4.08048   -4.090493 N.pl3        1 UNL1     -0.3170
     16 C         5.695591   3.384437   -3.772904 C.3        1 UNL1     0.1275
     17 N         4.929861   4.344324   -2.895408 N.2        1 UNL1     -0.2557
     18 C         4.89485   3.261711   -5.065751 C.3        1 UNL1     0.0016
     19 C         5.758635   2.571155   -6.109109 C.3        1 UNL1     0.0026
     20 N         6.143331   1.260232   -5.604613 N.3        1 UNL1     -0.3018
     21 C         6.86582   1.271707   -4.330938 C.3        1 UNL1     0.0026
     22 C         5.978004   1.965694   -3.296501 C.3        1 UNL1     0.0016
     23 C         6.710653   0.406028   -6.628881 C.3        1 UNL1     0.0012
     24 C         5.626759   -0.031168   -7.626774 C.3        1 UNL1     -0.0339
     25 C         5.884983   -1.453673   -8.150089 C.3        1 UNL1     -0.0615
     26 C         4.253276   0.089364   -6.989752 C.3        1 UNL1     -0.0615
     27 C         5.565628   9.276699   -2.722932 C.ar        1 UNL1     0.1347
     28 C         4.545654   9.522834   -1.821201 C.ar        1 UNL1     0.0342
     29 C         3.937478   8.36319   -1.295356 C.ar        1 UNL1     0.1435
     30 C         4.299974   7.074205   -1.688211 C.ar        1 UNL1     0.0774
     31 O         2.855465   8.438293   -0.489991 O.3        1 UNL1     -0.4436
     32 C         2.262035   7.132845   -0.557206 C.3        1 UNL1     0.3143
     33 C         3.387412   6.20703   -0.972665 C.2        1 UNL1     0.2504
     34 C         3.951667   10.86776   -1.507431 C.3        1 UNL1     -0.0327
     35 O         1.890005   6.764847   0.776744 O.2        1 UNL1     -0.4528
     36 C         -1.133115   4.496458   0.425683 C.3        1 UNL1     0.0854
     37 C         -1.278081   3.146747   -0.377304 C.3        1 UNL1     0.0236
     38 C         -1.787412   1.896627   0.488448 C.3        1 UNL1     0.1131
     39 C         -1.069356   1.541529   1.852475 C.3        1 UNL1     0.0200
     40 C         0.594935   1.564703   1.962187 C.3        1 UNL1     0.0661
     41 C         1.671896   0.807221   0.892613 C.3        1 UNL1     0.0091
     42 C         3.358984   1.292669   0.360188 C.3        1 UNL1     0.0661
     43 C         6.92531   7.799827   -4.218849 C.2        1 UNL1     0.2131
     44 O         7.266988   8.675298   -4.993152 O.2        1 UNL1     -0.2851
     45 O         6.29335   10.348882   -3.235066 O.3        1 UNL1     -0.5056
     46 O         3.513316   5.024583   -0.745023 O.2        1 UNL1     -0.2836
     47 C         5.346989   1.962317   2.008588 C.3        1 UNL1     -0.0566
     48 O         3.937059   -0.05666   0.570566 O.3        1 UNL1     -0.3909
     49 C         0.916694   0.39878   -0.352514 C.3        1 UNL1     -0.0577
     50 O         1.058466   2.862515   2.276105 O.3        1 UNL1     -0.3910
     51 O         -1.296756   4.402733   1.822776 O.3        1 UNL1     -0.3753
     52 C         -0.17557   3.002499   -1.476672 C.3        1 UNL1     -0.0564
     53 O         -2.249206   0.737151   -0.345031 O.3        1 UNL1     -0.4608
     54 C         -2.055672   -0.585626   -0.04381 C.2        1 UNL1     0.3042
     55 O         -1.225903   -1.34983   -0.535048 O.2        1 UNL1     -0.2512
     56 C         -2.947959   -1.089016   1.054888 C.3        1 UNL1     0.0332
     57 C         -1.903583   2.23065   3.030334 C.3        1 UNL1     -0.0567
     58 C         1.214767   7.186421   -1.693818 C.3        1 UNL1     0.0210
     59 C         -2.511811   4.959211   2.322614 C.3        1 UNL1     0.0372
     60 C         0.137887   5.234431   0.19093 C.2        1 UNL1     -0.0208
     61 C         0.967523   5.82329   1.053307 C.2        1 UNL1     0.0882
     62 H         4.400587   3.174878   0.519179 H        1 UNL1     0.0365
     63 H         5.988815   4.142832   -0.323926 H        1 UNL1     0.0576
     64 H         8.228555   2.163098   -1.072923 H        1 UNL1     0.0615
     65 H         7.870379   5.23489   -1.512995 H        1 UNL1     0.0622
     66 H         -1.932279   5.139611   0.031046 H        1 UNL1     0.0645
     67 H         -2.142884   3.321116   -1.040834 H        1 UNL1     0.0362
     68 H         -2.785966   2.263317   0.771205 H        1 UNL1     0.0741
     69 H         -1.310236   0.52057   2.117103 H        1 UNL1     0.0359
     70 H         0.732456   0.988238   2.896979 H        1 UNL1     0.0600
     71 H         1.795301   -0.168838   1.40157 H        1 UNL1     0.0348
     72 H         3.165698   1.841712   1.293198 H        1 UNL1     0.0602
     73 H         0.279733   5.362271   -0.853476 H        1 UNL1     0.0628
     74 H         0.925365   5.694626   2.135391 H        1 UNL1     0.1022
     75 H         11.362314   3.510533   -2.778238 H        1 UNL1     0.0279
     76 H         10.481931   3.369299   -4.247347 H        1 UNL1     0.0279
     77 H         11.389513   4.87476   -3.817024 H        1 UNL1     0.0279
     78 H         8.787976   5.233908   -5.075405 H        1 UNL1     0.1553
     79 H         7.642768   3.674332   -4.648267 H        1 UNL1     0.1484
     80 H         3.977813   2.694398   -4.865831 H        1 UNL1     0.0317
     81 H         4.581382   4.247084   -5.426901 H        1 UNL1     0.0317
     82 H         6.643609   3.171356   -6.366972 H        1 UNL1     0.0428
     83 H         5.169074   2.495577   -7.023307 H        1 UNL1     0.0428
     84 H         7.072576   0.272594   -3.934914 H        1 UNL1     0.0428
     85 H         7.859289   1.730825   -4.42864 H        1 UNL1     0.0428
     86 H         6.47748   1.838083   -2.354043 H        1 UNL1     0.0317
     87 H         5.044528   1.40448   -3.167054 H        1 UNL1     0.0317
     88 H         7.472488   0.98189   -7.170439 H        1 UNL1     0.0429
     89 H         7.216888   -0.462562   -6.188367 H        1 UNL1     0.0429
     90 H         5.623417   0.659058   -8.478707 H        1 UNL1     0.0308
     91 H         6.136345   -2.138058   -7.334285 H        1 UNL1     0.0233
     92 H         5.009524   -1.834792   -8.681059 H        1 UNL1     0.0233
     93 H         6.716278   -1.491355   -8.864487 H        1 UNL1     0.0233
     94 H         3.537939   -0.557409   -7.509188 H        1 UNL1     0.0233
     95 H         4.297205   -0.228032   -5.944146 H        1 UNL1     0.0233
     96 H         3.882974   1.117528   -7.031286 H        1 UNL1     0.0233
     97 H         2.885179   10.899344   -1.709512 H        1 UNL1     0.0280
     98 H         4.064824   11.133198   -0.448188 H        1 UNL1     0.0280
     99 H         4.442743   11.640403   -2.121404 H        1 UNL1     0.0280
     100 H         7.22759   10.244258   -3.191795 H        1 UNL1     0.2922
     101 H         4.85726   2.691081   2.65413 H        1 UNL1     0.0236
     102 H         6.422465   1.923116   2.178288 H        1 UNL1     0.0236
     103 H         4.972001   0.984835   2.355152 H        1 UNL1     0.0236
     104 H         3.530965   -0.428956   1.377693 H        1 UNL1     0.2098
     105 H         0.685114   1.219468   -1.026793 H        1 UNL1     0.0234
     106 H         1.361895   -0.429169   -0.904079 H        1 UNL1     0.0234
     107 H         0.0   -0.0   0.0 H        1 UNL1     0.0234
     108 H         2.019848   2.876497   2.104887 H        1 UNL1     0.2098
     109 H         -0.22325   3.808752   -2.221919 H        1 UNL1     0.0234
     110 H         0.837708   2.943581   -1.064919 H        1 UNL1     0.0234
     111 H         -0.287833   2.067917   -2.042269 H        1 UNL1     0.0234
     112 H         -2.728832   -2.14137   1.259537 H        1 UNL1     0.0342
     113 H         -2.862067   -0.48895   1.959535 H        1 UNL1     0.0342
     114 H         -3.988731   -1.022799   0.709094 H        1 UNL1     0.0342
     115 H         -1.881131   1.631749   3.951205 H        1 UNL1     0.0234
     116 H         -1.564482   3.236818   3.284667 H        1 UNL1     0.0234
     117 H         -2.988329   2.276697   2.832479 H        1 UNL1     0.0234
     118 H         0.181551   7.131697   -1.308493 H        1 UNL1     0.0309
     119 H         1.314007   8.073076   -2.328008 H        1 UNL1     0.0309
     120 H         1.2796   6.323928   -2.366135 H        1 UNL1     0.0309
     121 H         -2.339596   5.250132   3.358502 H        1 UNL1     0.0524
     122 H         -2.816202   5.863654   1.770014 H        1 UNL1     0.0524
     123 H         -3.311673   4.226246   2.26715 H        1 UNL1     0.0524
@<TRIPOS>BOND
     1     1     2    1
     2     1    42    1
     3     2     3    2
     4     3     4    1
     5     4     5    2
     6     5     7    1
     7     6    75    1
     8     6    76    1
     9     6    77    1
    10     7     9   am
    11     9    10    1
    12    10    11    2
    13    10    43    1
    14    11    14    1
    15    11    15    1
    16    12    13   ar
    17    12    27   ar
    18    12    43    1
    19    13    14    1
    20    13    30   ar
    21    14    17    2
    22    15    16    1
    23    16    17    1
    24    16    18    1
    25    16    22    1
    26    18    19    1
    27    19    20    1
    28    20    21    1
    29    21    22    1
    30    23    24    1
    31    23    88    1
    32    23    89    1
    33    24    25    1
    34    24    26    1
    35    24    90    1
    36    25    91    1
    37    25    92    1
    38    25    93    1
    39    26    94    1
    40    26    95    1
    41    26    96    1
    42    27    28   ar
    43    28    29   ar
    44    29    30   ar
    45    29    31    1
    46    30    33    1
    47    31    32    1
    48    32    33    1
    49    32    35    1
    50    34    97    1
    51    34    98    1
    52    34    99    1
    53    35    61    1
    54    36    37    1
    55    36    60    1
    56    37    38    1
    57    38    39    1
    58    39    40    1
    59    40    41    1
    60    41    42    1
    61    45   100    1
    62    47   101    1
    63    47   102    1
    64    47   103    1
    65    48   104    1
    66    49   105    1
    67    49   106    1
    68    49   107    1
    69    50   108    1
    70    51    59    1
    71    52   109    1
    72    52   110    1
    73    52   111    1
    74    53    54    1
    75    54    55    2
    76    54    56    1
    77    56   112    1
    78    56   113    1
    79    56   114    1
    80    57   115    1
    81    57   116    1
    82    57   117    1
    83    58   118    1
    84    58   119    1
    85    58   120    1
    86    59   121    1
    87    59   122    1
    88    59   123    1
    89    60    61    2
    90     1    47    1
    91     1    62    1
    92     2    63    1
    93     3    64    1
    94     4    65    1
    95     5     6    1
    96     7     8    2
    97     9    78    1
    98    15    79    1
    99    18    80    1
   100    18    81    1
   101    19    82    1
   102    19    83    1
   103    20    23    1
   104    21    84    1
   105    21    85    1
   106    22    86    1
   107    22    87    1
   108    27    45    1
   109    28    34    1
   110    32    58    1
   111    33    46    2
   112    36    51    1
   113    36    66    1
   114    37    52    1
   115    37    67    1
   116    38    53    1
   117    38    68    1
   118    42    48    1
   119    42    72    1
   120    43    44    2
   121    60    73    1
   122    61    74    1
   123    39    69    1
   124    39    57    1
   125    40    70    1
   126    40    50    1
   127    41    71    1
   128    41    49    1
