@<TRIPOS>MOLECULE
*****
 123 128 0 0 0
SMALL
GASTEIGER

@<TRIPOS>ATOM
     1 C         4.151774   -3.272337   0.602054 C.3        1 UNL1     0.0009
     2 C         4.844155   -4.695497   1.56759 C.2        1 UNL1     -0.0787
     3 C         5.594344   -5.199383   2.698679 C.2        1 UNL1     -0.0649
     4 C         5.817934   -6.811785   3.164002 C.2        1 UNL1     -0.0542
     5 C         6.163969   -7.674308   4.233297 C.2        1 UNL1     0.0115
     6 C         6.734022   -7.718904   5.677725 C.3        1 UNL1     -0.0348
     7 C         5.776691   -9.229014   4.133819 C.2        1 UNL1     0.2441
     8 O         6.587212   -10.099732   3.848456 O.2        1 UNL1     -0.2702
     9 N         4.510166   -9.554665   4.649586 N.am        1 UNL1     -0.2772
     10 C         3.546426   -9.420201   3.676731 C.2        1 UNL1     0.1049
     11 C         3.081251   -8.199411   3.483063 C.2        1 UNL1     0.0801
     12 C         3.015003   -10.039373   1.312086 C.ar        1 UNL1     0.0753
     13 C         2.72039   -8.655117   1.098435 C.ar        1 UNL1     0.0305
     14 C         2.617763   -7.714016   2.211471 C.2        1 UNL1     0.0924
     15 N         3.23895   -7.087635   4.221719 N.pl3        1 UNL1     -0.3170
     16 C         2.387629   -6.068104   3.668489 C.3        1 UNL1     0.1275
     17 N         2.260055   -6.433013   2.209623 N.2        1 UNL1     -0.2557
     18 C         1.000906   -6.258535   4.27548 C.3        1 UNL1     0.0016
     19 C         1.123659   -6.219965   5.790417 C.3        1 UNL1     0.0026
     20 N         1.695093   -4.938567   6.180941 N.3        1 UNL1     -0.3018
     21 C         3.003698   -4.637478   5.596761 C.3        1 UNL1     0.0026
     22 C         2.856092   -4.677044   4.074742 C.3        1 UNL1     0.0016
     23 C         1.578518   -4.678741   7.602048 C.3        1 UNL1     0.0012
     24 C         1.149156   -3.224155   7.850205 C.3        1 UNL1     -0.0339
     25 C         0.278766   -2.690773   6.70043 C.3        1 UNL1     -0.0615
     26 C         0.438484   -3.111911   9.187787 C.3        1 UNL1     -0.0615
     27 C         2.992118   -10.952781   0.260762 C.ar        1 UNL1     0.1347
     28 C         2.65113   -10.608765   -1.035166 C.ar        1 UNL1     0.0342
     29 C         2.412665   -9.231863   -1.231224 C.ar        1 UNL1     0.1435
     30 C         2.46734   -8.299335   -0.194584 C.ar        1 UNL1     0.0774
     31 O         1.962817   -8.755765   -2.412737 O.3        1 UNL1     -0.4436
     32 C         1.403768   -7.471736   -2.097135 C.3        1 UNL1     0.3143
     33 C         2.087773   -7.046517   -0.81357 C.2        1 UNL1     0.2504
     34 C         2.36135   -11.568937   -2.155077 C.3        1 UNL1     -0.0327
     35 O         1.828035   -6.559894   -3.117817 O.2        1 UNL1     -0.4528
     36 C         -0.928914   -3.96704   -3.408376 C.3        1 UNL1     0.0854
     37 C         -1.525237   -3.018185   -2.298602 C.3        1 UNL1     0.0236
     38 C         -1.494603   -1.45554   -2.657691 C.3        1 UNL1     0.1131
     39 C         -0.147477   -0.789776   -3.151937 C.3        1 UNL1     0.0200
     40 C         1.297033   -1.144858   -2.397122 C.3        1 UNL1     0.0661
     41 C         1.580899   -1.103836   -0.725192 C.3        1 UNL1     0.0091
     42 C         2.697535   -2.119342   0.317532 C.3        1 UNL1     0.0661
     43 C         3.258209   -10.486538   2.706056 C.2        1 UNL1     0.2131
     44 O         3.130896   -11.640047   3.074765 O.2        1 UNL1     -0.2851
     45 O         3.335633   -12.272777   0.545446 O.3        1 UNL1     -0.5056
     46 O         2.293073   -5.925551   -0.404741 O.2        1 UNL1     -0.2836
     47 C         5.280464   -2.556491   -0.187633 C.3        1 UNL1     -0.0566
     48 O         3.265341   -0.95646   1.041699 O.3        1 UNL1     -0.3909
     49 C         0.252296   -1.029527   -0.006313 C.3        1 UNL1     -0.0577
     50 O         1.8851   -2.30088   -2.958828 O.3        1 UNL1     -0.3910
     51 O         -0.290379   -3.325584   -4.489227 O.3        1 UNL1     -0.3753
     52 C         -1.223288   -3.546121   -0.858095 C.3        1 UNL1     -0.0564
     53 O         -2.366998   -0.61791   -1.76908 O.3        1 UNL1     -0.4608
     54 C         -3.468558   0.089367   -2.174361 C.2        1 UNL1     0.3042
     55 O         -3.616784   0.699165   -3.232668 O.2        1 UNL1     -0.2512
     56 C         -4.611487   0.032189   -1.20114 C.3        1 UNL1     0.0332
     57 C         -0.170937   -0.783636   -4.751182 C.3        1 UNL1     -0.0567
     58 C         -0.09712   -7.707165   -1.808277 C.3        1 UNL1     0.0210
     59 C         -1.10961   -2.405325   -5.208845 C.3        1 UNL1     0.0372
     60 C         0.012938   -5.005295   -2.908274 C.2        1 UNL1     -0.0208
     61 C         1.194591   -5.401325   -3.383248 C.2        1 UNL1     0.0882
     62 H         3.692642   -3.989469   -0.089055 H        1 UNL1     0.0365
     63 H         4.564987   -5.532784   0.924562 H        1 UNL1     0.0576
     64 H         5.966579   -4.534028   3.480887 H        1 UNL1     0.0615
     65 H         5.491504   -7.382757   2.290551 H        1 UNL1     0.0622
     66 H         -1.798308   -4.512922   -3.801076 H        1 UNL1     0.0645
     67 H         -2.608892   -3.227339   -2.321063 H        1 UNL1     0.0362
     68 H         -2.15921   -1.45536   -3.535086 H        1 UNL1     0.0741
     69 H         -0.222884   0.282229   -3.027332 H        1 UNL1     0.0359
     70 H         1.918307   -0.308786   -2.771371 H        1 UNL1     0.0600
     71 H         1.945004   -0.063376   -0.61643 H        1 UNL1     0.0348
     72 H         3.067533   -2.222698   -0.712873 H        1 UNL1     0.0602
     73 H         -0.446923   -5.541234   -2.115465 H        1 UNL1     0.0628
     74 H         1.758216   -4.873081   -4.153003 H        1 UNL1     0.1022
     75 H         7.131993   -6.718222   5.973173 H        1 UNL1     0.0279
     76 H         6.023705   -7.932698   6.473219 H        1 UNL1     0.0279
     77 H         7.635475   -8.34365   5.760047 H        1 UNL1     0.0279
     78 H         4.273848   -8.915097   5.405354 H        1 UNL1     0.1553
     79 H         3.525499   -7.093855   5.183376 H        1 UNL1     0.1484
     80 H         0.33757   -5.46667   3.907105 H        1 UNL1     0.0317
     81 H         0.561222   -7.209513   3.956151 H        1 UNL1     0.0317
     82 H         1.728864   -7.055789   6.171255 H        1 UNL1     0.0428
     83 H         0.12393   -6.35945   6.202891 H        1 UNL1     0.0428
     84 H         3.37379   -3.637096   5.841871 H        1 UNL1     0.0428
     85 H         3.785003   -5.311099   5.975067 H        1 UNL1     0.0428
     86 H         3.792227   -4.3238   3.683771 H        1 UNL1     0.0317
     87 H         2.140055   -3.913204   3.747732 H        1 UNL1     0.0317
     88 H         0.806774   -5.345199   8.008914 H        1 UNL1     0.0429
     89 H         2.513633   -4.910786   8.12787 H        1 UNL1     0.0429
     90 H         2.043217   -2.594769   7.932312 H        1 UNL1     0.0308
     91 H         -0.103471   -1.689874   6.922239 H        1 UNL1     0.0233
     92 H         0.847419   -2.659035   5.768103 H        1 UNL1     0.0233
     93 H         -0.592334   -3.328049   6.505755 H        1 UNL1     0.0233
     94 H         -0.118902   -2.170492   9.241515 H        1 UNL1     0.0233
     95 H         -0.274794   -3.932982   9.301974 H        1 UNL1     0.0233
     96 H         1.147328   -3.141801   10.020022 H        1 UNL1     0.0233
     97 H         1.306138   -11.590386   -2.410611 H        1 UNL1     0.0280
     98 H         2.888883   -11.298378   -3.07907 H        1 UNL1     0.0280
     99 H         2.665549   -12.585768   -1.857398 H        1 UNL1     0.0280
     100 H         3.000132   -12.905122   -0.065456 H        1 UNL1     0.2922
     101 H         4.843413   -1.88654   -0.927773 H        1 UNL1     0.0236
     102 H         5.996268   -3.246693   -0.632863 H        1 UNL1     0.0236
     103 H         5.887125   -1.901136   0.459411 H        1 UNL1     0.0236
     104 H         2.655821   -0.738632   1.773824 H        1 UNL1     0.2098
     105 H         -0.554901   -1.56689   -0.497724 H        1 UNL1     0.0234
     106 H         0.291415   -1.290991   1.051058 H        1 UNL1     0.0234
     107 H         0.0   0.0   0.0 H        1 UNL1     0.0234
     108 H         1.372942   -3.069859   -2.642387 H        1 UNL1     0.2098
     109 H         -0.15813   -3.774771   -0.713634 H        1 UNL1     0.0234
     110 H         -1.561914   -2.864722   -0.070204 H        1 UNL1     0.0234
     111 H         -1.759097   -4.481683   -0.649342 H        1 UNL1     0.0234
     112 H         -5.450919   0.624561   -1.577697 H        1 UNL1     0.0342
     113 H         -4.918872   -0.99095   -0.990082 H        1 UNL1     0.0342
     114 H         -4.279485   0.481854   -0.255233 H        1 UNL1     0.0342
     115 H         -1.196673   -0.7651   -5.144513 H        1 UNL1     0.0234
     116 H         0.367962   0.053215   -5.199867 H        1 UNL1     0.0234
     117 H         0.212714   -1.715837   -5.200354 H        1 UNL1     0.0234
     118 H         -0.358937   -7.476252   -0.760834 H        1 UNL1     0.0309
     119 H         -0.75666   -7.142735   -2.475081 H        1 UNL1     0.0309
     120 H         -0.385833   -8.758538   -1.914882 H        1 UNL1     0.0309
     121 H         -0.552605   -1.473776   -5.305377 H        1 UNL1     0.0524
     122 H         -1.342444   -2.759896   -6.226738 H        1 UNL1     0.0524
     123 H         -2.039438   -2.23242   -4.674414 H        1 UNL1     0.0524
@<TRIPOS>BOND
     1     1     2    1
     2     1    42    1
     3     2     3    2
     4     3     4    1
     5     4     5    2
     6     5     7    1
     7     6    75    1
     8     6    76    1
     9     6    77    1
    10     7     9   am
    11     9    10    1
    12    10    11    2
    13    10    43    1
    14    11    14    1
    15    11    15    1
    16    12    13   ar
    17    12    27   ar
    18    12    43    1
    19    13    14    1
    20    13    30   ar
    21    14    17    2
    22    15    16    1
    23    16    17    1
    24    16    18    1
    25    16    22    1
    26    18    19    1
    27    19    20    1
    28    20    21    1
    29    21    22    1
    30    23    24    1
    31    23    88    1
    32    23    89    1
    33    24    25    1
    34    24    26    1
    35    24    90    1
    36    25    91    1
    37    25    92    1
    38    25    93    1
    39    26    94    1
    40    26    95    1
    41    26    96    1
    42    27    28   ar
    43    28    29   ar
    44    29    30   ar
    45    29    31    1
    46    30    33    1
    47    31    32    1
    48    32    33    1
    49    32    35    1
    50    34    97    1
    51    34    98    1
    52    34    99    1
    53    35    61    1
    54    36    37    1
    55    36    60    1
    56    37    38    1
    57    38    39    1
    58    39    40    1
    59    40    41    1
    60    41    42    1
    61    45   100    1
    62    47   101    1
    63    47   102    1
    64    47   103    1
    65    48   104    1
    66    49   105    1
    67    49   106    1
    68    49   107    1
    69    50   108    1
    70    51    59    1
    71    52   109    1
    72    52   110    1
    73    52   111    1
    74    53    54    1
    75    54    55    2
    76    54    56    1
    77    56   112    1
    78    56   113    1
    79    56   114    1
    80    57   115    1
    81    57   116    1
    82    57   117    1
    83    58   118    1
    84    58   119    1
    85    58   120    1
    86    59   121    1
    87    59   122    1
    88    59   123    1
    89    60    61    2
    90     1    47    1
    91     1    62    1
    92     2    63    1
    93     3    64    1
    94     4    65    1
    95     5     6    1
    96     7     8    2
    97     9    78    1
    98    15    79    1
    99    18    80    1
   100    18    81    1
   101    19    82    1
   102    19    83    1
   103    20    23    1
   104    21    84    1
   105    21    85    1
   106    22    86    1
   107    22    87    1
   108    27    45    1
   109    28    34    1
   110    32    58    1
   111    33    46    2
   112    36    51    1
   113    36    66    1
   114    37    52    1
   115    37    67    1
   116    38    53    1
   117    38    68    1
   118    42    48    1
   119    42    72    1
   120    43    44    2
   121    60    73    1
   122    61    74    1
   123    39    69    1
   124    39    57    1
   125    40    70    1
   126    40    50    1
   127    41    71    1
   128    41    49    1
