@<TRIPOS>MOLECULE
*****
 123 128 0 0 0
SMALL
GASTEIGER

@<TRIPOS>ATOM
     1 C         -0.965784   1.724121   5.072768 C.3        1 UNL1     0.0009
     2 C         -1.232697   1.237731   6.841728 C.2        1 UNL1     -0.0787
     3 C         -2.126005   0.932872   7.939502 C.2        1 UNL1     -0.0649
     4 C         -1.721844   0.372169   9.485019 C.2        1 UNL1     -0.0542
     5 C         -2.203578   -0.282664   10.64528 C.2        1 UNL1     0.0115
     6 C         -3.485126   -0.794799   11.358495 C.3        1 UNL1     -0.0348
     7 C         -1.147279   -0.914421   11.675864 C.2        1 UNL1     0.2441
     8 O         -0.844073   -0.375995   12.731653 O.2        1 UNL1     -0.2702
     9 N         -0.791149   -2.248207   11.410649 N.am        1 UNL1     -0.2772
     10 C         0.274584   -2.296966   10.541651 C.2        1 UNL1     0.1049
     11 C         -0.015738   -2.187978   9.257884 C.2        1 UNL1     0.0801
     12 C         2.555947   -1.350474   10.145584 C.ar        1 UNL1     0.0753
     13 C         2.119151   -1.061403   8.813572 C.ar        1 UNL1     0.0305
     14 C         0.862416   -1.590662   8.28864 C.2        1 UNL1     0.0924
     15 N         -1.204399   -2.245576   8.633148 N.pl3        1 UNL1     -0.3170
     16 C         -0.956464   -2.243086   7.215835 C.3        1 UNL1     0.1275
     17 N         0.353271   -1.509018   7.062658 N.2        1 UNL1     -0.2557
     18 C         -0.684101   -3.686065   6.801915 C.3        1 UNL1     0.0016
     19 C         -1.862075   -4.545883   7.231661 C.3        1 UNL1     0.0026
     20 N         -3.069264   -4.037207   6.595287 N.3        1 UNL1     -0.3018
     21 C         -3.381397   -2.636042   6.884557 C.3        1 UNL1     0.0026
     22 C         -2.186724   -1.79007   6.440732 C.3        1 UNL1     0.0016
     23 C         -4.188332   -4.952765   6.695702 C.3        1 UNL1     0.0012
     24 C         -3.954872   -6.187756   5.811366 C.3        1 UNL1     -0.0339
     25 C         -5.273327   -6.713678   5.220485 C.3        1 UNL1     -0.0615
     26 C         -2.944029   -5.866323   4.724324 C.3        1 UNL1     -0.0615
     27 C         3.808932   -0.944166   10.598422 C.ar        1 UNL1     0.1347
     28 C         4.724334   -0.279973   9.801593 C.ar        1 UNL1     0.0342
     29 C         4.253665   0.036816   8.509587 C.ar        1 UNL1     0.1435
     30 C         2.987289   -0.332003   8.054081 C.ar        1 UNL1     0.0774
     31 O         5.065019   0.584536   7.578612 O.3        1 UNL1     -0.4436
     32 C         4.412373   0.319612   6.327716 C.3        1 UNL1     0.3143
     33 C         2.952047   0.117047   6.677899 C.2        1 UNL1     0.2504
     34 C         6.170063   -0.036669   10.134416 C.3        1 UNL1     -0.0327
     35 O         4.491324   1.516699   5.544134 O.2        1 UNL1     -0.4528
     36 C         4.571238   0.385855   1.92158 C.3        1 UNL1     0.0854
     37 C         3.531774   -0.498141   1.130641 C.3        1 UNL1     0.0236
     38 C         2.963485   0.16686   -0.213445 C.3        1 UNL1     0.1131
     39 C         2.378278   1.636007   -0.175907 C.3        1 UNL1     0.0200
     40 C         1.373378   2.113664   1.066855 C.3        1 UNL1     0.0661
     41 C         0.008329   1.272199   1.620197 C.3        1 UNL1     0.0091
     42 C         -0.715889   1.153674   3.301525 C.3        1 UNL1     0.0661
     43 C         1.666381   -2.175243   11.000387 C.2        1 UNL1     0.2131
     44 O         2.056828   -2.807864   11.964793 O.2        1 UNL1     -0.2851
     45 O         4.138738   -1.225589   11.922607 O.3        1 UNL1     -0.5056
     46 O         1.977702   0.305349   5.984323 O.2        1 UNL1     -0.2836
     47 C         -1.265096   3.23488   4.877839 C.3        1 UNL1     -0.0566
     48 O         -2.102567   1.416941   2.846628 O.3        1 UNL1     -0.3909
     49 C         0.035138   -0.129017   1.051542 C.3        1 UNL1     -0.0577
     50 O         2.125538   2.589544   2.164816 O.3        1 UNL1     -0.3910
     51 O         4.740224   1.704924   1.453678 O.3        1 UNL1     -0.3753
     52 C         2.624452   -1.331148   2.093873 C.3        1 UNL1     -0.0564
     53 O         2.265632   -0.80733   -1.116928 O.3        1 UNL1     -0.4608
     54 C         1.147655   -0.539611   -1.862839 C.2        1 UNL1     0.3042
     55 O         -0.011065   -0.873156   -1.617986 O.2        1 UNL1     -0.2512
     56 C         1.421107   0.305786   -3.074137 C.3        1 UNL1     0.0332
     57 C         3.550269   2.633271   -0.611888 C.3        1 UNL1     -0.0567
     58 C         4.990579   -1.016864   5.807101 C.3        1 UNL1     0.0210
     59 C         5.977687   1.950578   0.787193 C.3        1 UNL1     0.0372
     60 C         4.331629   0.477838   3.387625 C.2        1 UNL1     -0.0208
     61 C         4.360395   1.532276   4.20376 C.2        1 UNL1     0.0882
     62 H         0.115786   1.637396   5.232135 H        1 UNL1     0.0365
     63 H         -0.203194   1.219438   7.205404 H        1 UNL1     0.0576
     64 H         -3.208344   0.884984   7.800374 H        1 UNL1     0.0615
     65 H         -0.642664   0.536217   9.547803 H        1 UNL1     0.0622
     66 H         5.527957   -0.142529   1.805196 H        1 UNL1     0.0645
     67 H         4.137966   -1.327214   0.726006 H        1 UNL1     0.0362
     68 H         3.897173   0.239398   -0.791794 H        1 UNL1     0.0741
     69 H         1.761007   1.787229   -1.051416 H        1 UNL1     0.0359
     70 H         0.933716   3.024477   0.617212 H        1 UNL1     0.0600
     71 H         -0.775841   1.744546   0.996561 H        1 UNL1     0.0348
     72 H         -0.075504   2.047631   3.309506 H        1 UNL1     0.0602
     73 H         4.238081   -0.500912   3.788308 H        1 UNL1     0.0628
     74 H         4.395153   2.569808   3.869758 H        1 UNL1     0.1022
     75 H         -4.279044   -0.009528   11.349681 H        1 UNL1     0.0279
     76 H         -3.989274   -1.642771   10.900405 H        1 UNL1     0.0279
     77 H         -3.339916   -0.944167   12.438451 H        1 UNL1     0.0279
     78 H         -1.570877   -2.72856   10.966395 H        1 UNL1     0.1553
     79 H         -2.028643   -2.647884   9.040216 H        1 UNL1     0.1484
     80 H         -0.535249   -3.724499   5.716037 H        1 UNL1     0.0317
     81 H         0.24021   -4.056231   7.258289 H        1 UNL1     0.0317
     82 H         -1.971262   -4.569281   8.325938 H        1 UNL1     0.0428
     83 H         -1.646275   -5.570845   6.928456 H        1 UNL1     0.0428
     84 H         -4.246596   -2.256334   6.33223 H        1 UNL1     0.0428
     85 H         -3.651564   -2.486717   7.939085 H        1 UNL1     0.0428
     86 H         -2.501638   -0.768133   6.543022 H        1 UNL1     0.0317
     87 H         -2.029989   -1.900454   5.360757 H        1 UNL1     0.0317
     88 H         -4.268399   -5.280992   7.740283 H        1 UNL1     0.0429
     89 H         -5.133674   -4.45646   6.441176 H        1 UNL1     0.0429
     90 H         -3.501841   -6.982194   6.416217 H        1 UNL1     0.0308
     91 H         -5.879522   -5.899029   4.813082 H        1 UNL1     0.0233
     92 H         -5.078928   -7.444851   4.43232 H        1 UNL1     0.0233
     93 H         -5.890716   -7.226572   5.967885 H        1 UNL1     0.0233
     94 H         -3.054407   -6.564476   3.887524 H        1 UNL1     0.0233
     95 H         -3.11309   -4.854973   4.344125 H        1 UNL1     0.0233
     96 H         -1.919089   -5.9357   5.09936 H        1 UNL1     0.0233
     97 H         6.836875   -0.468652   9.394157 H        1 UNL1     0.0280
     98 H         6.412327   1.033551   10.16897 H        1 UNL1     0.0280
     99 H         6.403869   -0.485336   11.113767 H        1 UNL1     0.0280
     100 H         3.481384   -0.98139   12.550203 H        1 UNL1     0.2922
     101 H         -0.329557   3.786012   4.784693 H        1 UNL1     0.0236
     102 H         -1.907705   3.648239   5.65448 H        1 UNL1     0.0236
     103 H         -1.801411   3.432484   3.934699 H        1 UNL1     0.0236
     104 H         -2.69811   0.845405   3.369739 H        1 UNL1     0.2098
     105 H         0.934345   -0.692435   1.287759 H        1 UNL1     0.0234
     106 H         -0.851603   -0.724971   1.26708 H        1 UNL1     0.0234
     107 H         0.0   0.0   0.0 H        1 UNL1     0.0234
     108 H         2.130942   3.564705   2.111903 H        1 UNL1     0.2098
     109 H         1.560263   -1.079859   1.98403 H        1 UNL1     0.0234
     110 H         2.758823   -2.412621   1.983851 H        1 UNL1     0.0234
     111 H         2.868194   -1.138406   3.147147 H        1 UNL1     0.0234
     112 H         0.487691   0.499181   -3.611426 H        1 UNL1     0.0342
     113 H         1.924902   1.236761   -2.818558 H        1 UNL1     0.0342
     114 H         2.084451   -0.258683   -3.743849 H        1 UNL1     0.0342
     115 H         3.165266   3.494479   -1.175165 H        1 UNL1     0.0234
     116 H         4.135716   3.022453   0.223479 H        1 UNL1     0.0234
     117 H         4.250637   2.195685   -1.34397 H        1 UNL1     0.0234
     118 H         5.628578   -0.874007   4.917408 H        1 UNL1     0.0309
     119 H         5.554387   -1.56633   6.567633 H        1 UNL1     0.0309
     120 H         4.212543   -1.701778   5.452616 H        1 UNL1     0.0309
     121 H         6.200725   3.012497   0.886893 H        1 UNL1     0.0524
     122 H         6.814255   1.391828   1.238845 H        1 UNL1     0.0524
     123 H         5.899383   1.680927   -0.262212 H        1 UNL1     0.0524
@<TRIPOS>BOND
     1     1     2    1
     2     1    42    1
     3     2     3    2
     4     3     4    1
     5     4     5    2
     6     5     7    1
     7     6    75    1
     8     6    76    1
     9     6    77    1
    10     7     9   am
    11     9    10    1
    12    10    11    2
    13    10    43    1
    14    11    14    1
    15    11    15    1
    16    12    13   ar
    17    12    27   ar
    18    12    43    1
    19    13    14    1
    20    13    30   ar
    21    14    17    2
    22    15    16    1
    23    16    17    1
    24    16    18    1
    25    16    22    1
    26    18    19    1
    27    19    20    1
    28    20    21    1
    29    21    22    1
    30    23    24    1
    31    23    88    1
    32    23    89    1
    33    24    25    1
    34    24    26    1
    35    24    90    1
    36    25    91    1
    37    25    92    1
    38    25    93    1
    39    26    94    1
    40    26    95    1
    41    26    96    1
    42    27    28   ar
    43    28    29   ar
    44    29    30   ar
    45    29    31    1
    46    30    33    1
    47    31    32    1
    48    32    33    1
    49    32    35    1
    50    34    97    1
    51    34    98    1
    52    34    99    1
    53    35    61    1
    54    36    37    1
    55    36    60    1
    56    37    38    1
    57    38    39    1
    58    39    40    1
    59    40    41    1
    60    41    42    1
    61    45   100    1
    62    47   101    1
    63    47   102    1
    64    47   103    1
    65    48   104    1
    66    49   105    1
    67    49   106    1
    68    49   107    1
    69    50   108    1
    70    51    59    1
    71    52   109    1
    72    52   110    1
    73    52   111    1
    74    53    54    1
    75    54    55    2
    76    54    56    1
    77    56   112    1
    78    56   113    1
    79    56   114    1
    80    57   115    1
    81    57   116    1
    82    57   117    1
    83    58   118    1
    84    58   119    1
    85    58   120    1
    86    59   121    1
    87    59   122    1
    88    59   123    1
    89    60    61    2
    90     1    47    1
    91     1    62    1
    92     2    63    1
    93     3    64    1
    94     4    65    1
    95     5     6    1
    96     7     8    2
    97     9    78    1
    98    15    79    1
    99    18    80    1
   100    18    81    1
   101    19    82    1
   102    19    83    1
   103    20    23    1
   104    21    84    1
   105    21    85    1
   106    22    86    1
   107    22    87    1
   108    27    45    1
   109    28    34    1
   110    32    58    1
   111    33    46    2
   112    36    51    1
   113    36    66    1
   114    37    52    1
   115    37    67    1
   116    38    53    1
   117    38    68    1
   118    42    48    1
   119    42    72    1
   120    43    44    2
   121    60    73    1
   122    61    74    1
   123    39    69    1
   124    39    57    1
   125    40    70    1
   126    40    50    1
   127    41    71    1
   128    41    49    1
