@<TRIPOS>MOLECULE
*****
 123 128 0 0 0
SMALL
GASTEIGER

@<TRIPOS>ATOM
     1 C         5.184059   1.672718   0.571676 C.3        1 UNL1     0.0009
     2 C         6.647196   2.452701   -0.257717 C.2        1 UNL1     -0.0787
     3 C         7.938627   2.331772   -0.900858 C.2        1 UNL1     -0.0649
     4 C         8.847587   3.549664   -1.647106 C.2        1 UNL1     -0.0542
     5 C         9.887856   3.822122   -2.569432 C.2        1 UNL1     0.0115
     6 C         11.021031   3.175332   -3.412582 C.3        1 UNL1     -0.0348
     7 C         10.016144   5.300713   -3.181233 C.2        1 UNL1     0.2441
     8 O         10.845873   6.111658   -2.793363 O.2        1 UNL1     -0.2702
     9 N         9.289293   5.51317   -4.36559 N.am        1 UNL1     -0.2772
     10 C         8.007441   5.92081   -4.075748 C.2        1 UNL1     0.1049
     11 C         7.142082   4.963798   -3.793783 C.2        1 UNL1     0.0801
     12 C         6.709747   7.553986   -2.695148 C.ar        1 UNL1     0.0753
     13 C         5.926049   6.439955   -2.255421 C.ar        1 UNL1     0.0305
     14 C         6.034089   5.129422   -2.892508 C.2        1 UNL1     0.0924
     15 N         7.247139   3.632335   -3.944443 N.pl3        1 UNL1     -0.3170
     16 C         5.96311   3.054057   -3.649287 C.3        1 UNL1     0.1275
     17 N         5.324676   4.023714   -2.684978 N.2        1 UNL1     -0.2557
     18 C         5.132996   3.119726   -4.927684 C.3        1 UNL1     0.0016
     19 C         5.896554   2.418638   -6.039908 C.3        1 UNL1     0.0026
     20 N         6.139027   1.038547   -5.642939 N.3        1 UNL1     -0.3018
     21 C         6.878546   0.872802   -4.38994 C.3        1 UNL1     0.0026
     22 C         6.091357   1.580641   -3.285769 C.3        1 UNL1     0.0016
     23 C         6.589905   0.206829   -6.740936 C.3        1 UNL1     0.0012
     24 C         5.447756   -0.030015   -7.741514 C.3        1 UNL1     -0.0339
     25 C         5.51865   0.955595   -8.91948 C.3        1 UNL1     -0.0615
     26 C         5.463182   -1.472188   -8.217622 C.3        1 UNL1     -0.0615
     27 C         6.515231   8.827319   -2.165142 C.ar        1 UNL1     0.1347
     28 C         5.544115   9.116168   -1.223042 C.ar        1 UNL1     0.0342
     29 C         4.817577   7.994798   -0.769353 C.ar        1 UNL1     0.1435
     30 C         5.026069   6.70708   -1.264867 C.ar        1 UNL1     0.0774
     31 O         3.763995   8.128396   0.065587 O.3        1 UNL1     -0.4436
     32 C         3.026151   6.905959   -0.083097 C.3        1 UNL1     0.3143
     33 C         4.033148   5.894961   -0.593053 C.2        1 UNL1     0.2504
     34 C         5.110677   10.491075   -0.796589 C.3        1 UNL1     -0.0327
     35 O         2.636452   6.481366   1.228813 O.2        1 UNL1     -0.4528
     36 C         -0.628406   4.59659   0.785628 C.3        1 UNL1     0.0854
     37 C         -0.937501   3.336301   -0.110841 C.3        1 UNL1     0.0236
     38 C         -1.570585   2.088464   0.672646 C.3        1 UNL1     0.1131
     39 C         -0.875354   1.553114   1.988824 C.3        1 UNL1     0.0200
     40 C         0.782481   1.382618   2.059195 C.3        1 UNL1     0.0661
     41 C         1.749861   0.593493   0.910688 C.3        1 UNL1     0.0091
     42 C         3.472166   0.9273   0.374366 C.3        1 UNL1     0.0661
     43 C         7.675535   7.326298   -3.798629 C.2        1 UNL1     0.2131
     44 O         8.101281   8.214602   -4.514446 O.2        1 UNL1     -0.2851
     45 O         7.350895   9.847687   -2.614531 O.3        1 UNL1     -0.5056
     46 O         4.028556   4.691992   -0.456305 O.2        1 UNL1     -0.2836
     47 C         5.549192   1.244495   2.018495 C.3        1 UNL1     -0.0566
     48 O         3.897709   -0.490014   0.470543 O.3        1 UNL1     -0.3909
     49 C         0.93354   0.367361   -0.3423 C.3        1 UNL1     -0.0577
     50 O         1.394369   2.593197   2.456453 O.3        1 UNL1     -0.3910
     51 O         -0.779132   4.415795   2.175601 O.3        1 UNL1     -0.3753
     52 C         0.123931   3.154242   -1.244492 C.3        1 UNL1     -0.0564
     53 O         -2.173487   1.054235   -0.232454 O.3        1 UNL1     -0.4608
     54 C         -2.433556   -0.247094   0.109359 C.2        1 UNL1     0.3042
     55 O         -1.872352   -1.256918   -0.313895 O.2        1 UNL1     -0.2512
     56 C         -3.494134   -0.391582   1.163405 C.3        1 UNL1     0.0332
     57 C         -1.607551   2.239276   3.234314 C.3        1 UNL1     -0.0567
     58 C         1.973501   7.161878   -1.18671 C.3        1 UNL1     0.0210
     59 C         -1.086925   5.603109   2.904583 C.3        1 UNL1     0.0372
     60 C         0.713771   5.204292   0.574865 C.2        1 UNL1     -0.0208
     61 C         1.618244   5.629993   1.457731 C.2        1 UNL1     0.0882
     62 H         4.721773   2.664417   0.646081 H        1 UNL1     0.0365
     63 H         6.395282   3.51093   -0.162012 H        1 UNL1     0.0576
     64 H         8.385202   1.356999   -1.109417 H        1 UNL1     0.0615
     65 H         8.368659   4.474068   -1.313057 H        1 UNL1     0.0622
     66 H         -1.356181   5.352754   0.459124 H        1 UNL1     0.0645
     67 H         -1.787663   3.65568   -0.738362 H        1 UNL1     0.0362
     68 H         -2.516758   2.541406   1.005998 H        1 UNL1     0.0741
     69 H         -1.22554   0.548152   2.183318 H        1 UNL1     0.0359
     70 H         0.869106   0.7251   2.945325 H        1 UNL1     0.0600
     71 H         1.770572   -0.42606   1.34317 H        1 UNL1     0.0348
     72 H         3.357016   1.421966   1.349743 H        1 UNL1     0.0602
     73 H         0.85235   5.394525   -0.460439 H        1 UNL1     0.0628
     74 H         1.579215   5.424993   2.5281 H        1 UNL1     0.1022
     75 H         11.046038   2.070289   -3.253564 H        1 UNL1     0.0279
     76 H         10.927116   3.254418   -4.49332 H        1 UNL1     0.0279
     77 H         12.024907   3.466401   -3.07022 H        1 UNL1     0.0279
     78 H         9.223013   4.641637   -4.887235 H        1 UNL1     0.1553
     79 H         7.916258   3.191213   -4.548284 H        1 UNL1     0.1484
     80 H         4.161166   2.644403   -4.747734 H        1 UNL1     0.0317
     81 H         4.92688   4.158422   -5.207469 H        1 UNL1     0.0317
     82 H         6.839309   2.934518   -6.274418 H        1 UNL1     0.0428
     83 H         5.287639   2.478773   -6.942491 H        1 UNL1     0.0428
     84 H         6.977655   -0.170288   -4.073788 H        1 UNL1     0.0428
     85 H         7.915752   1.22465   -4.477822 H        1 UNL1     0.0428
     86 H         6.588317   1.327042   -2.367778 H        1 UNL1     0.0317
     87 H         5.102751   1.118542   -3.175227 H        1 UNL1     0.0317
     88 H         7.403026   0.733839   -7.257066 H        1 UNL1     0.0429
     89 H         7.001976   -0.743618   -6.378138 H        1 UNL1     0.0429
     90 H         4.487753   0.10615   -7.229589 H        1 UNL1     0.0308
     91 H         6.479931   0.887687   -9.437582 H        1 UNL1     0.0233
     92 H         4.712876   0.764483   -9.632091 H        1 UNL1     0.0233
     93 H         5.402801   1.998129   -8.599267 H        1 UNL1     0.0233
     94 H         4.781165   -1.597315   -9.06558 H        1 UNL1     0.0233
     95 H         6.468526   -1.745035   -8.550487 H        1 UNL1     0.0233
     96 H         5.156142   -2.15803   -7.423068 H        1 UNL1     0.0233
     97 H         4.297976   10.457243   -0.077142 H        1 UNL1     0.0280
     98 H         5.92128   11.047677   -0.308355 H        1 UNL1     0.0280
     99 H         4.769445   11.060064   -1.676877 H        1 UNL1     0.0280
     100 H         6.900939   10.60419   -2.947497 H        1 UNL1     0.2922
     101 H         4.671367   0.82653   2.510821 H        1 UNL1     0.0236
     102 H         6.002241   2.045816   2.601261 H        1 UNL1     0.0236
     103 H         6.293028   0.430459   2.034196 H        1 UNL1     0.0236
     104 H         4.299972   -0.618041   1.351885 H        1 UNL1     0.2098
     105 H         0.744441   1.266418   -0.923462 H        1 UNL1     0.0234
     106 H         1.302027   -0.429459   -0.988227 H        1 UNL1     0.0234
     107 H         0.0   -0.0   0.0 H        1 UNL1     0.0234
     108 H         1.218352   3.250692   1.756105 H        1 UNL1     0.2098
     109 H         1.140274   3.02716   -0.846235 H        1 UNL1     0.0234
     110 H         -0.109452   2.327353   -1.923852 H        1 UNL1     0.0234
     111 H         0.169722   4.033338   -1.901028 H        1 UNL1     0.0234
     112 H         -3.64656   -1.450031   1.395345 H        1 UNL1     0.0342
     113 H         -3.257783   0.175343   2.062615 H        1 UNL1     0.0342
     114 H         -4.436094   0.003559   0.758757 H        1 UNL1     0.0342
     115 H         -2.681329   2.007436   3.255249 H        1 UNL1     0.0234
     116 H         -1.191882   1.957771   4.203862 H        1 UNL1     0.0234
     117 H         -1.628516   3.341332   3.179774 H        1 UNL1     0.0234
     118 H         1.073042   7.664453   -0.792251 H        1 UNL1     0.0309
     119 H         2.366186   7.739931   -2.02924 H        1 UNL1     0.0309
     120 H         1.578086   6.233789   -1.613798 H        1 UNL1     0.0309
     121 H         -0.253033   6.293052   2.778247 H        1 UNL1     0.0524
     122 H         -1.992849   6.104209   2.524797 H        1 UNL1     0.0524
     123 H         -1.226479   5.372487   3.956929 H        1 UNL1     0.0524
@<TRIPOS>BOND
     1     1     2    1
     2     1    42    1
     3     2     3    2
     4     3     4    1
     5     4     5    2
     6     5     7    1
     7     6    75    1
     8     6    76    1
     9     6    77    1
    10     7     9   am
    11     9    10    1
    12    10    11    2
    13    10    43    1
    14    11    14    1
    15    11    15    1
    16    12    13   ar
    17    12    27   ar
    18    12    43    1
    19    13    14    1
    20    13    30   ar
    21    14    17    2
    22    15    16    1
    23    16    17    1
    24    16    18    1
    25    16    22    1
    26    18    19    1
    27    19    20    1
    28    20    21    1
    29    21    22    1
    30    23    24    1
    31    23    88    1
    32    23    89    1
    33    24    25    1
    34    24    26    1
    35    24    90    1
    36    25    91    1
    37    25    92    1
    38    25    93    1
    39    26    94    1
    40    26    95    1
    41    26    96    1
    42    27    28   ar
    43    28    29   ar
    44    29    30   ar
    45    29    31    1
    46    30    33    1
    47    31    32    1
    48    32    33    1
    49    32    35    1
    50    34    97    1
    51    34    98    1
    52    34    99    1
    53    35    61    1
    54    36    37    1
    55    36    60    1
    56    37    38    1
    57    38    39    1
    58    39    40    1
    59    40    41    1
    60    41    42    1
    61    45   100    1
    62    47   101    1
    63    47   102    1
    64    47   103    1
    65    48   104    1
    66    49   105    1
    67    49   106    1
    68    49   107    1
    69    50   108    1
    70    51    59    1
    71    52   109    1
    72    52   110    1
    73    52   111    1
    74    53    54    1
    75    54    55    2
    76    54    56    1
    77    56   112    1
    78    56   113    1
    79    56   114    1
    80    57   115    1
    81    57   116    1
    82    57   117    1
    83    58   118    1
    84    58   119    1
    85    58   120    1
    86    59   121    1
    87    59   122    1
    88    59   123    1
    89    60    61    2
    90     1    47    1
    91     1    62    1
    92     2    63    1
    93     3    64    1
    94     4    65    1
    95     5     6    1
    96     7     8    2
    97     9    78    1
    98    15    79    1
    99    18    80    1
   100    18    81    1
   101    19    82    1
   102    19    83    1
   103    20    23    1
   104    21    84    1
   105    21    85    1
   106    22    86    1
   107    22    87    1
   108    27    45    1
   109    28    34    1
   110    32    58    1
   111    33    46    2
   112    36    51    1
   113    36    66    1
   114    37    52    1
   115    37    67    1
   116    38    53    1
   117    38    68    1
   118    42    48    1
   119    42    72    1
   120    43    44    2
   121    60    73    1
   122    61    74    1
   123    39    69    1
   124    39    57    1
   125    40    70    1
   126    40    50    1
   127    41    71    1
   128    41    49    1
