@<TRIPOS>MOLECULE
*****
 123 128 0 0 0
SMALL
GASTEIGER

@<TRIPOS>ATOM
     1 C         -0.730369   -3.445129   -4.150358 C.3        1 UNL1     0.0009
     2 C         -1.275675   -5.139132   -4.670004 C.2        1 UNL1     -0.0787
     3 C         -0.961155   -6.51125   -5.008258 C.2        1 UNL1     -0.0649
     4 C         -2.038659   -7.776721   -5.330631 C.2        1 UNL1     -0.0542
     5 C         -2.191709   -9.183748   -5.393314 C.2        1 UNL1     0.0115
     6 C         -1.423837   -10.533859   -5.363375 C.3        1 UNL1     -0.0348
     7 C         -3.671258   -9.806104   -5.368916 C.2        1 UNL1     0.2441
     8 O         -4.237363   -10.216026   -6.372916 O.2        1 UNL1     -0.2702
     9 N         -4.170073   -10.089137   -4.085472 N.am        1 UNL1     -0.2772
     10 C         -4.802291   -8.984918   -3.561713 C.2        1 UNL1     0.1049
     11 C         -4.023275   -8.085225   -2.989079 C.2        1 UNL1     0.0801
     12 C         -6.498912   -7.22809   -4.102423 C.ar        1 UNL1     0.0753
     13 C         -5.53175   -6.269549   -3.66151 C.ar        1 UNL1     0.0305
     14 C         -4.312097   -6.67686   -2.967537 C.2        1 UNL1     0.0924
     15 N         -2.726794   -8.160292   -2.642627 N.pl3        1 UNL1     -0.3170
     16 C         -2.402155   -6.974088   -1.895779 C.3        1 UNL1     0.1275
     17 N         -3.364604   -5.930231   -2.407422 N.2        1 UNL1     -0.2557
     18 C         -2.79139   -7.233433   -0.443561 C.3        1 UNL1     0.0016
     19 C         -2.080502   -8.489863   0.033528 C.3        1 UNL1     0.0026
     20 N         -0.643472   -8.292193   -0.096471 N.3        1 UNL1     -0.3018
     21 C         -0.179244   -7.975745   -1.448774 C.3        1 UNL1     0.0026
     22 C         -0.902619   -6.707946   -1.906276 C.3        1 UNL1     0.0016
     23 C         0.129811   -9.29948   0.602136 C.3        1 UNL1     0.0012
     24 C         0.163503   -9.00304   2.109698 C.3        1 UNL1     -0.0339
     25 C         0.715753   -7.59655   2.39406 C.3        1 UNL1     -0.0615
     26 C         -1.219311   -9.192277   2.708693 C.3        1 UNL1     -0.0615
     27 C         -7.71331   -6.826748   -4.65404 C.ar        1 UNL1     0.1347
     28 C         -8.088001   -5.500822   -4.778843 C.ar        1 UNL1     0.0342
     29 C         -7.100004   -4.57421   -4.383345 C.ar        1 UNL1     0.1435
     30 C         -5.864644   -4.961396   -3.862584 C.ar        1 UNL1     0.0774
     31 O         -7.354052   -3.24805   -4.341318 O.3        1 UNL1     -0.4436
     32 C         -6.341146   -2.711982   -3.476723 C.3        1 UNL1     0.3143
     33 C         -5.207362   -3.716201   -3.524595 C.2        1 UNL1     0.2504
     34 C         -9.463586   -5.002052   -5.12394 C.3        1 UNL1     -0.0327
     35 O         -5.857304   -1.507279   -4.083221 O.2        1 UNL1     -0.4528
     36 C         -4.769975   0.735187   -1.220154 C.3        1 UNL1     0.0854
     37 C         -3.717649   0.454817   -0.07931 C.3        1 UNL1     0.0236
     38 C         -2.54845   1.545399   0.044576 C.3        1 UNL1     0.1131
     39 C         -1.727505   1.965782   -1.240568 C.3        1 UNL1     0.0200
     40 C         -1.203674   0.810502   -2.32379 C.3        1 UNL1     0.0661
     41 C         -0.368576   -0.613076   -1.93181 C.3        1 UNL1     0.0091
     42 C         -0.391766   -2.264555   -2.730234 C.3        1 UNL1     0.0661
     43 C         -6.203655   -8.663835   -3.870646 C.2        1 UNL1     0.2131
     44 O         -7.059815   -9.528633   -3.827617 O.2        1 UNL1     -0.2851
     45 O         -8.579746   -7.822636   -5.10006 O.3        1 UNL1     -0.5056
     46 O         -4.024955   -3.526795   -3.346006 O.2        1 UNL1     -0.2836
     47 C         -0.06774   -2.702748   -5.341901 C.3        1 UNL1     -0.0566
     48 O         1.084707   -2.401362   -2.750934 O.3        1 UNL1     -0.3909
     49 C         -0.468761   -0.842652   -0.44025 C.3        1 UNL1     -0.0577
     50 O         -2.20247   0.535582   -3.285325 O.3        1 UNL1     -0.3910
     51 O         -4.463064   1.798311   -2.093654 O.3        1 UNL1     -0.3753
     52 C         -3.450014   -1.07501   0.102212 C.3        1 UNL1     -0.0564
     53 O         -1.778545   1.457107   1.329791 O.3        1 UNL1     -0.4608
     54 C         -2.28591   1.043763   2.533809 C.2        1 UNL1     0.3042
     55 O         -2.241369   -0.088149   3.014049 O.2        1 UNL1     -0.2512
     56 C         -2.905284   2.151481   3.337582 C.3        1 UNL1     0.0332
     57 C         -2.401628   3.290346   -1.831551 C.3        1 UNL1     -0.0567
     58 C         -6.941453   -2.7049   -2.051553 C.3        1 UNL1     0.0210
     59 C         -3.076733   1.941904   -2.39916 C.3        1 UNL1     0.0372
     60 C         -5.100971   -0.438982   -2.072756 C.2        1 UNL1     -0.0208
     61 C         -5.219308   -0.539511   -3.397383 C.2        1 UNL1     0.0882
     62 H         -1.781561   -3.133042   -4.132776 H        1 UNL1     0.0365
     63 H         -2.344494   -4.97216   -4.819056 H        1 UNL1     0.0576
     64 H         0.054532   -6.903708   -4.921867 H        1 UNL1     0.0615
     65 H         -2.997559   -7.271879   -5.475986 H        1 UNL1     0.0622
     66 H         -5.695786   0.989681   -0.68522 H        1 UNL1     0.0645
     67 H         -4.280834   0.62987   0.853823 H        1 UNL1     0.0362
     68 H         -3.148624   2.429234   0.309434 H        1 UNL1     0.0741
     69 H         -0.803436   2.432256   -0.926073 H        1 UNL1     0.0359
     70 H         -0.44324   1.396474   -2.874643 H        1 UNL1     0.0600
     71 H         0.675941   -0.256845   -2.026893 H        1 UNL1     0.0348
     72 H         -0.78149   -1.56007   -3.479321 H        1 UNL1     0.0602
     73 H         -5.377936   -1.254467   -1.451852 H        1 UNL1     0.0628
     74 H         -4.902869   0.227775   -4.104755 H        1 UNL1     0.1022
     75 H         -1.079418   -10.766054   -4.326796 H        1 UNL1     0.0279
     76 H         -1.994154   -11.422246   -5.625245 H        1 UNL1     0.0279
     77 H         -0.467597   -10.49134   -5.90513 H        1 UNL1     0.0279
     78 H         -3.39966   -10.324831   -3.463387 H        1 UNL1     0.1553
     79 H         -2.228381   -9.024449   -2.534227 H        1 UNL1     0.1484
     80 H         -2.514255   -6.362042   0.161948 H        1 UNL1     0.0317
     81 H         -3.875697   -7.352058   -0.344284 H        1 UNL1     0.0317
     82 H         -2.409541   -9.379924   -0.522743 H        1 UNL1     0.0428
     83 H         -2.373496   -8.657292   1.070433 H        1 UNL1     0.0428
     84 H         0.891002   -7.753732   -1.504401 H        1 UNL1     0.0428
     85 H         -0.311939   -8.823312   -2.135315 H        1 UNL1     0.0428
     86 H         -0.44373   -6.432921   -2.837818 H        1 UNL1     0.0317
     87 H         -0.650015   -5.872142   -1.24241 H        1 UNL1     0.0317
     88 H         -0.356782   -10.271449   0.447866 H        1 UNL1     0.0429
     89 H         1.144587   -9.379052   0.191441 H        1 UNL1     0.0429
     90 H         0.808067   -9.738184   2.605999 H        1 UNL1     0.0308
     91 H         -0.018358   -6.823657   2.147442 H        1 UNL1     0.0233
     92 H         1.000742   -7.498474   3.444189 H        1 UNL1     0.0233
     93 H         1.61786   -7.376241   1.810534 H        1 UNL1     0.0233
     94 H         -1.188717   -9.952286   3.49691 H        1 UNL1     0.0233
     95 H         -1.563884   -8.255922   3.156432 H        1 UNL1     0.0233
     96 H         -1.942284   -9.508558   1.951564 H        1 UNL1     0.0233
     97 H         -9.833494   -4.288722   -4.393488 H        1 UNL1     0.0280
     98 H         -9.484593   -4.481112   -6.090085 H        1 UNL1     0.0280
     99 H         -10.165017   -5.851485   -5.163353 H        1 UNL1     0.0280
     100 H         -9.19372   -8.125448   -4.454333 H        1 UNL1     0.2922
     101 H         -0.376224   -1.657524   -5.341248 H        1 UNL1     0.0236
     102 H         -0.252287   -3.18304   -6.302237 H        1 UNL1     0.0236
     103 H         1.030791   -2.670381   -5.250387 H        1 UNL1     0.0236
     104 H         1.429332   -2.003851   -1.927412 H        1 UNL1     0.2098
     105 H         -1.486313   -0.893276   -0.060992 H        1 UNL1     0.0234
     106 H         0.115136   -1.684725   -0.068895 H        1 UNL1     0.0234
     107 H         0.0   0.0   0.0 H        1 UNL1     0.0234
     108 H         -2.50464   -0.380992   -3.13581 H        1 UNL1     0.2098
     109 H         -4.28638   -1.689397   -0.259358 H        1 UNL1     0.0234
     110 H         -2.519614   -1.408192   -0.370113 H        1 UNL1     0.0234
     111 H         -3.321567   -1.340698   1.159973 H        1 UNL1     0.0234
     112 H         -3.896312   2.390537   2.940013 H        1 UNL1     0.0342
     113 H         -2.957862   1.908228   4.397727 H        1 UNL1     0.0342
     114 H         -2.275436   3.045527   3.232044 H        1 UNL1     0.0342
     115 H         -2.461064   4.088904   -1.079248 H        1 UNL1     0.0234
     116 H         -1.887688   3.69872   -2.703988 H        1 UNL1     0.0234
     117 H         -3.466489   3.16335   -2.092096 H        1 UNL1     0.0234
     118 H         -6.159478   -2.684145   -1.272393 H        1 UNL1     0.0309
     119 H         -7.637417   -1.87707   -1.882629 H        1 UNL1     0.0309
     120 H         -7.498831   -3.620545   -1.825655 H        1 UNL1     0.0309
     121 H         -2.831117   1.210175   -3.168317 H        1 UNL1     0.0524
     122 H         -2.838421   2.940193   -2.802476 H        1 UNL1     0.0524
     123 H         -2.476126   1.76794   -1.510846 H        1 UNL1     0.0524
@<TRIPOS>BOND
     1     1     2    1
     2     1    42    1
     3     2     3    2
     4     3     4    1
     5     4     5    2
     6     5     7    1
     7     6    75    1
     8     6    76    1
     9     6    77    1
    10     7     9   am
    11     9    10    1
    12    10    11    2
    13    10    43    1
    14    11    14    1
    15    11    15    1
    16    12    13   ar
    17    12    27   ar
    18    12    43    1
    19    13    14    1
    20    13    30   ar
    21    14    17    2
    22    15    16    1
    23    16    17    1
    24    16    18    1
    25    16    22    1
    26    18    19    1
    27    19    20    1
    28    20    21    1
    29    21    22    1
    30    23    24    1
    31    23    88    1
    32    23    89    1
    33    24    25    1
    34    24    26    1
    35    24    90    1
    36    25    91    1
    37    25    92    1
    38    25    93    1
    39    26    94    1
    40    26    95    1
    41    26    96    1
    42    27    28   ar
    43    28    29   ar
    44    29    30   ar
    45    29    31    1
    46    30    33    1
    47    31    32    1
    48    32    33    1
    49    32    35    1
    50    34    97    1
    51    34    98    1
    52    34    99    1
    53    35    61    1
    54    36    37    1
    55    36    60    1
    56    37    38    1
    57    38    39    1
    58    39    40    1
    59    40    41    1
    60    41    42    1
    61    45   100    1
    62    47   101    1
    63    47   102    1
    64    47   103    1
    65    48   104    1
    66    49   105    1
    67    49   106    1
    68    49   107    1
    69    50   108    1
    70    51    59    1
    71    52   109    1
    72    52   110    1
    73    52   111    1
    74    53    54    1
    75    54    55    2
    76    54    56    1
    77    56   112    1
    78    56   113    1
    79    56   114    1
    80    57   115    1
    81    57   116    1
    82    57   117    1
    83    58   118    1
    84    58   119    1
    85    58   120    1
    86    59   121    1
    87    59   122    1
    88    59   123    1
    89    60    61    2
    90     1    47    1
    91     1    62    1
    92     2    63    1
    93     3    64    1
    94     4    65    1
    95     5     6    1
    96     7     8    2
    97     9    78    1
    98    15    79    1
    99    18    80    1
   100    18    81    1
   101    19    82    1
   102    19    83    1
   103    20    23    1
   104    21    84    1
   105    21    85    1
   106    22    86    1
   107    22    87    1
   108    27    45    1
   109    28    34    1
   110    32    58    1
   111    33    46    2
   112    36    51    1
   113    36    66    1
   114    37    52    1
   115    37    67    1
   116    38    53    1
   117    38    68    1
   118    42    48    1
   119    42    72    1
   120    43    44    2
   121    60    73    1
   122    61    74    1
   123    39    69    1
   124    39    57    1
   125    40    70    1
   126    40    50    1
   127    41    71    1
   128    41    49    1
