@<TRIPOS>MOLECULE
*****
 123 128 0 0 0
SMALL
GASTEIGER

@<TRIPOS>ATOM
     1 C         5.138886   0.536215   1.81758 C.3        1 UNL1     0.0009
     2 C         6.897265   0.91137   1.365474 C.2        1 UNL1     -0.0787
     3 C         8.241086   0.461961   1.068453 C.2        1 UNL1     -0.0649
     4 C         9.558072   1.390738   0.549531 C.2        1 UNL1     -0.0542
     5 C         10.822629   1.357645   -0.088339 C.2        1 UNL1     0.0115
     6 C         11.943557   0.416059   -0.608201 C.3        1 UNL1     -0.0348
     7 C         11.43141   2.721151   -0.677598 C.2        1 UNL1     0.2441
     8 O         12.308517   3.358036   -0.110511 O.2        1 UNL1     -0.2702
     9 N         11.078142   2.996437   -2.010104 N.am        1 UNL1     -0.2772
     10 C         9.894048   3.695664   -2.058325 C.2        1 UNL1     0.1049
     11 C         8.789448   2.975654   -1.983057 C.2        1 UNL1     0.0801
     12 C         8.717283   5.67383   -1.078827 C.ar        1 UNL1     0.0753
     13 C         7.615712   4.795256   -0.827318 C.ar        1 UNL1     0.0305
     14 C         7.567236   3.44811   -1.391145 C.2        1 UNL1     0.0924
     15 N         8.617022   1.645958   -2.076361 N.pl3        1 UNL1     -0.3170
     16 C         7.201885   1.387005   -2.10055 C.3        1 UNL1     0.1275
     17 N         6.593164   2.543638   -1.345976 N.2        1 UNL1     -0.2557
     18 C         6.739807   1.534919   -3.547031 C.3        1 UNL1     0.0016
     19 C         7.563934   0.600855   -4.41877 C.3        1 UNL1     0.0026
     20 N         7.378942   -0.76439   -3.946634 N.3        1 UNL1     -0.3018
     21 C         7.738534   -0.991765   -2.545434 C.3        1 UNL1     0.0026
     22 C         6.895606   -0.046578   -1.687536 C.3        1 UNL1     0.0016
     23 C         7.874598   -1.756004   -4.880267 C.3        1 UNL1     0.0012
     24 C         6.981935   -1.812849   -6.129938 C.3        1 UNL1     -0.0339
     25 C         7.54899   -0.945758   -7.26601 C.3        1 UNL1     -0.0615
     26 C         6.791411   -3.254363   -6.568707 C.3        1 UNL1     -0.0615
     27 C         8.701212   6.995535   -0.639559 C.ar        1 UNL1     0.1347
     28 C         7.626794   7.561021   0.023691 C.ar        1 UNL1     0.0342
     29 C         6.574098   6.663863   0.303163 C.ar        1 UNL1     0.1435
     30 C         6.591781   5.327741   -0.098937 C.ar        1 UNL1     0.0774
     31 O         5.411666   7.08819   0.845109 O.3        1 UNL1     -0.4436
     32 C         4.468988   6.049182   0.540655 C.3        1 UNL1     0.3143
     33 C         5.307128   4.806374   0.318927 C.2        1 UNL1     0.2504
     34 C         7.433608   9.025915   0.300936 C.3        1 UNL1     -0.0327
     35 O         3.689714   5.821656   1.721424 O.2        1 UNL1     -0.4528
     36 C         0.281176   4.668928   0.512632 C.3        1 UNL1     0.0854
     37 C         -0.087091   3.442143   -0.407639 C.3        1 UNL1     0.0236
     38 C         -1.15971   2.426701   0.21695 C.3        1 UNL1     0.1131
     39 C         -0.94236   1.854308   1.675509 C.3        1 UNL1     0.0200
     40 C         0.564982   1.33099   2.161817 C.3        1 UNL1     0.0661
     41 C         1.569679   0.263907   1.307693 C.3        1 UNL1     0.0091
     42 C         3.39936   0.170703   1.212922 C.3        1 UNL1     0.0661
     43 C         9.839389   5.156678   -1.900832 C.2        1 UNL1     0.2131
     44 O         10.617241   5.872927   -2.504711 O.2        1 UNL1     -0.2851
     45 O         9.832471   7.770885   -0.885572 O.3        1 UNL1     -0.5056
     46 O         4.99225   3.647624   0.47386 O.2        1 UNL1     -0.2836
     47 C         5.038419   0.150257   3.317888 C.3        1 UNL1     -0.0566
     48 O         3.450347   -1.293795   1.440438 O.3        1 UNL1     -0.3909
     49 C         1.047137   0.126889   -0.104989 C.3        1 UNL1     -0.0577
     50 O         1.326696   2.405018   2.675605 O.3        1 UNL1     -0.3910
     51 O         -0.235071   4.632219   1.823957 O.3        1 UNL1     -0.3753
     52 C         1.142972   2.946139   -1.235815 C.3        1 UNL1     -0.0564
     53 O         -1.750795   1.483462   -0.789651 O.3        1 UNL1     -0.4608
     54 C         -2.366737   0.294289   -0.499112 C.2        1 UNL1     0.3042
     55 O         -1.962515   -0.838792   -0.757126 O.2        1 UNL1     -0.2512
     56 C         -3.647732   0.452538   0.269473 C.3        1 UNL1     0.0332
     57 C         -1.772219   2.777168   2.684389 C.3        1 UNL1     -0.0567
     58 C         3.799183   6.444219   -0.796071 C.3        1 UNL1     0.0210
     59 C         -0.454986   5.910944   2.417561 C.3        1 UNL1     0.0372
     60 C         1.737771   4.950224   0.632483 C.2        1 UNL1     -0.0208
     61 C         2.47804   5.233809   1.705016 C.2        1 UNL1     0.0882
     62 H         4.914156   1.607763   1.754381 H        1 UNL1     0.0365
     63 H         6.881215   2.00322   1.374223 H        1 UNL1     0.0576
     64 H         8.486983   -0.599929   0.997528 H        1 UNL1     0.0615
     65 H         9.240024   2.420299   0.734827 H        1 UNL1     0.0622
     66 H         -0.152491   5.538839   -0.000431 H        1 UNL1     0.0645
     67 H         -0.665096   3.890959   -1.234097 H        1 UNL1     0.0362
     68 H         -2.027155   3.099852   0.293947 H        1 UNL1     0.0741
     69 H         -1.551249   0.968219   1.79596 H        1 UNL1     0.0359
     70 H         0.282945   0.74011   3.054216 H        1 UNL1     0.0600
     71 H         1.250321   -0.699372   1.751609 H        1 UNL1     0.0348
     72 H         3.171807   0.7516   2.118512 H        1 UNL1     0.0602
     73 H         2.159942   5.025864   -0.338752 H        1 UNL1     0.0628
     74 H         2.137963   5.124694   2.735394 H        1 UNL1     0.1022
     75 H         11.673889   -0.652212   -0.426234 H        1 UNL1     0.0279
     76 H         12.131648   0.430993   -1.6794 H        1 UNL1     0.0279
     77 H         12.875711   0.505637   -0.031342 H        1 UNL1     0.0279
     78 H         10.939055   2.123304   -2.514456 H        1 UNL1     0.1553
     79 H         9.290573   1.024281   -2.484747 H        1 UNL1     0.1484
     80 H         5.670439   1.298987   -3.606648 H        1 UNL1     0.0317
     81 H         6.852218   2.569061   -3.889908 H        1 UNL1     0.0317
     82 H         8.628293   0.878434   -4.420042 H        1 UNL1     0.0428
     83 H         7.219342   0.723678   -5.44601 H        1 UNL1     0.0428
     84 H         7.515493   -2.003985   -2.194043 H        1 UNL1     0.0428
     85 H         8.819029   -0.883222   -2.377904 H        1 UNL1     0.0428
     86 H         7.086242   -0.331915   -0.669583 H        1 UNL1     0.0317
     87 H         5.830065   -0.271276   -1.818798 H        1 UNL1     0.0317
     88 H         8.886601   -1.460737   -5.186799 H        1 UNL1     0.0429
     89 H         7.956964   -2.743037   -4.407238 H        1 UNL1     0.0429
     90 H         5.98195   -1.442952   -5.874169 H        1 UNL1     0.0308
     91 H         8.563298   -1.255788   -7.53464 H        1 UNL1     0.0233
     92 H         6.910508   -1.002403   -8.150737 H        1 UNL1     0.0233
     93 H         7.602095   0.115559   -6.994677 H        1 UNL1     0.0233
     94 H         6.320512   -3.289236   -7.557076 H        1 UNL1     0.0233
     95 H         7.761281   -3.754663   -6.63953 H        1 UNL1     0.0233
     96 H         6.160476   -3.805402   -5.865682 H        1 UNL1     0.0233
     97 H         6.491426   9.224816   0.802893 H        1 UNL1     0.0280
     98 H         8.215177   9.42934   0.957939 H        1 UNL1     0.0280
     99 H         7.444213   9.585752   -0.648572 H        1 UNL1     0.0280
     100 H         9.662695   8.578916   -1.337107 H        1 UNL1     0.2922
     101 H         3.99627   -0.026593   3.583039 H        1 UNL1     0.0236
     102 H         5.511447   0.875108   3.979566 H        1 UNL1     0.0236
     103 H         5.548177   -0.803206   3.535257 H        1 UNL1     0.0236
     104 H         3.589791   -1.439049   2.396694 H        1 UNL1     0.2098
     105 H         1.215401   0.998452   -0.732586 H        1 UNL1     0.0234
     106 H         1.365062   -0.778214   -0.622328 H        1 UNL1     0.0234
     107 H         0.0   -0.0   0.0 H        1 UNL1     0.0234
     108 H         1.479399   3.029977   1.940843 H        1 UNL1     0.2098
     109 H         1.976939   2.630498   -0.59349 H        1 UNL1     0.0234
     110 H         0.894306   2.140961   -1.935526 H        1 UNL1     0.0234
     111 H         1.546178   3.741119   -1.877204 H        1 UNL1     0.0234
     112 H         -4.083773   -0.530313   0.472492 H        1 UNL1     0.0342
     113 H         -3.505552   1.014824   1.191136 H        1 UNL1     0.0342
     114 H         -4.356289   1.012593   -0.356188 H        1 UNL1     0.0342
     115 H         -2.846054   2.773525   2.451894 H        1 UNL1     0.0234
     116 H         -1.662573   2.49762   3.734094 H        1 UNL1     0.0234
     117 H         -1.537787   3.851604   2.591814 H        1 UNL1     0.0234
     118 H         2.971704   7.160314   -0.649462 H        1 UNL1     0.0309
     119 H         4.504492   6.856225   -1.524764 H        1 UNL1     0.0309
     120 H         3.314009   5.59533   -1.290136 H        1 UNL1     0.0309
     121 H         0.509801   6.412725   2.486542 H        1 UNL1     0.0524
     122 H         -1.117213   6.547247   1.807143 H        1 UNL1     0.0524
     123 H         -0.889511   5.796474   3.406591 H        1 UNL1     0.0524
@<TRIPOS>BOND
     1     1     2    1
     2     1    42    1
     3     2     3    2
     4     3     4    1
     5     4     5    2
     6     5     7    1
     7     6    75    1
     8     6    76    1
     9     6    77    1
    10     7     9   am
    11     9    10    1
    12    10    11    2
    13    10    43    1
    14    11    14    1
    15    11    15    1
    16    12    13   ar
    17    12    27   ar
    18    12    43    1
    19    13    14    1
    20    13    30   ar
    21    14    17    2
    22    15    16    1
    23    16    17    1
    24    16    18    1
    25    16    22    1
    26    18    19    1
    27    19    20    1
    28    20    21    1
    29    21    22    1
    30    23    24    1
    31    23    88    1
    32    23    89    1
    33    24    25    1
    34    24    26    1
    35    24    90    1
    36    25    91    1
    37    25    92    1
    38    25    93    1
    39    26    94    1
    40    26    95    1
    41    26    96    1
    42    27    28   ar
    43    28    29   ar
    44    29    30   ar
    45    29    31    1
    46    30    33    1
    47    31    32    1
    48    32    33    1
    49    32    35    1
    50    34    97    1
    51    34    98    1
    52    34    99    1
    53    35    61    1
    54    36    37    1
    55    36    60    1
    56    37    38    1
    57    38    39    1
    58    39    40    1
    59    40    41    1
    60    41    42    1
    61    45   100    1
    62    47   101    1
    63    47   102    1
    64    47   103    1
    65    48   104    1
    66    49   105    1
    67    49   106    1
    68    49   107    1
    69    50   108    1
    70    51    59    1
    71    52   109    1
    72    52   110    1
    73    52   111    1
    74    53    54    1
    75    54    55    2
    76    54    56    1
    77    56   112    1
    78    56   113    1
    79    56   114    1
    80    57   115    1
    81    57   116    1
    82    57   117    1
    83    58   118    1
    84    58   119    1
    85    58   120    1
    86    59   121    1
    87    59   122    1
    88    59   123    1
    89    60    61    2
    90     1    47    1
    91     1    62    1
    92     2    63    1
    93     3    64    1
    94     4    65    1
    95     5     6    1
    96     7     8    2
    97     9    78    1
    98    15    79    1
    99    18    80    1
   100    18    81    1
   101    19    82    1
   102    19    83    1
   103    20    23    1
   104    21    84    1
   105    21    85    1
   106    22    86    1
   107    22    87    1
   108    27    45    1
   109    28    34    1
   110    32    58    1
   111    33    46    2
   112    36    51    1
   113    36    66    1
   114    37    52    1
   115    37    67    1
   116    38    53    1
   117    38    68    1
   118    42    48    1
   119    42    72    1
   120    43    44    2
   121    60    73    1
   122    61    74    1
   123    39    69    1
   124    39    57    1
   125    40    70    1
   126    40    50    1
   127    41    71    1
   128    41    49    1
