@<TRIPOS>MOLECULE
*****
 123 128 0 0 0
SMALL
GASTEIGER

@<TRIPOS>ATOM
     1 C         1.909537   2.73071   -3.662055 C.3        1 UNL1     0.0009
     2 C         1.794433   2.721523   -5.51238 C.2        1 UNL1     -0.0787
     3 C         2.419332   2.565379   -6.808978 C.2        1 UNL1     -0.0649
     4 C         1.674275   2.559397   -8.329245 C.2        1 UNL1     -0.0542
     5 C         1.808642   2.176382   -9.686567 C.2        1 UNL1     0.0115
     6 C         2.807856   1.638295   -10.747396 C.3        1 UNL1     -0.0348
     7 C         0.49366   2.090282   -10.603299 C.2        1 UNL1     0.2441
     8 O         0.188971   2.955448   -11.41273 O.2        1 UNL1     -0.2702
     9 N         -0.143418   0.837172   -10.603129 N.am        1 UNL1     -0.2772
     10 C         -1.054093   0.7616   -9.5744 C.2        1 UNL1     0.1049
     11 C         -0.567847   0.441364   -8.388974 C.2        1 UNL1     0.0801
     12 C         -2.94725   1.999465   -8.506235 C.ar        1 UNL1     0.0753
     13 C         -2.26889   1.804661   -7.26105 C.ar        1 UNL1     0.0305
     14 C         -1.123261   0.90497   -7.146412 C.2        1 UNL1     0.0924
     15 N         0.644492   -0.030654   -8.05139 N.pl3        1 UNL1     -0.3170
     16 C         0.607309   -0.379341   -6.655937 C.3        1 UNL1     0.1275
     17 N         -0.442365   0.531074   -6.066824 N.2        1 UNL1     -0.2557
     18 C         0.044147   -1.793906   -6.558185 C.3        1 UNL1     0.0016
     19 C         0.897203   -2.717157   -7.413458 C.3        1 UNL1     0.0026
     20 N         2.270431   -2.665417   -6.931175 N.3        1 UNL1     -0.3018
     21 C         2.878808   -1.333411   -6.92889 C.3        1 UNL1     0.0026
     22 C         2.008277   -0.423738   -6.060233 C.3        1 UNL1     0.0016
     23 C         3.099535   -3.72222   -7.475601 C.3        1 UNL1     0.0012
     24 C         2.691897   -5.082913   -6.889 C.3        1 UNL1     -0.0339
     25 C         3.906778   -6.01067   -6.723508 C.3        1 UNL1     -0.0615
     26 C         1.957033   -4.884351   -5.574721 C.3        1 UNL1     -0.0615
     27 C         -4.109851   2.762731   -8.583077 C.ar        1 UNL1     0.1347
     28 C         -4.70853   3.345401   -7.480295 C.ar        1 UNL1     0.0342
     29 C         -3.996432   3.181035   -6.273206 C.ar        1 UNL1     0.1435
     30 C         -2.811259   2.449439   -6.187453 C.ar        1 UNL1     0.0774
     31 O         -4.505638   3.595436   -5.092534 O.3        1 UNL1     -0.4436
     32 C         -3.770362   2.860511   -4.10252 C.3        1 UNL1     0.3143
     33 C         -2.471375   2.473547   -4.780092 C.2        1 UNL1     0.2504
     34 C         -6.079594   3.960988   -7.443743 C.3        1 UNL1     -0.0327
     35 O         -3.436454   3.776773   -3.052652 O.2        1 UNL1     -0.4528
     36 C         -3.28514   1.707219   0.125734 C.3        1 UNL1     0.0854
     37 C         -2.398809   0.443759   0.450712 C.3        1 UNL1     0.0236
     38 C         -1.498844   0.57125   1.771906 C.3        1 UNL1     0.1131
     39 C         -0.576412   1.840306   1.974109 C.3        1 UNL1     0.0200
     40 C         0.330493   2.43609   0.707222 C.3        1 UNL1     0.0661
     41 C         1.349933   1.527089   -0.298795 C.3        1 UNL1     0.0091
     42 C         1.777184   1.745147   -2.069476 C.3        1 UNL1     0.0661
     43 C         -2.421614   1.287931   -9.697741 C.2        1 UNL1     0.2131
     44 O         -3.089622   1.047209   -10.686961 O.2        1 UNL1     -0.2851
     45 O         -4.682704   2.940784   -9.840684 O.3        1 UNL1     -0.5056
     46 O         -1.393199   2.256012   -4.274058 O.2        1 UNL1     -0.2836
     47 C         2.601245   4.030946   -3.17123 C.3        1 UNL1     -0.0566
     48 O         3.235462   1.58182   -1.855315 O.3        1 UNL1     -0.3909
     49 C         1.054243   0.058046   -0.093924 C.3        1 UNL1     -0.0577
     50 O         -0.425851   3.345642   -0.066329 O.3        1 UNL1     -0.3910
     51 O         -3.051483   2.845473   0.92399 O.3        1 UNL1     -0.3753
     52 C         -1.873501   -0.248396   -0.849258 C.3        1 UNL1     -0.0564
     53 O         -0.946446   -0.739322   2.251055 O.3        1 UNL1     -0.4608
     54 C         0.296584   -0.926388   2.796778 C.2        1 UNL1     0.3042
     55 O         0.565321   -1.42335   3.889777 O.2        1 UNL1     -0.2512
     56 C         1.420076   -0.510007   1.890629 C.3        1 UNL1     0.0332
     57 C         -1.388514   2.889415   2.867437 C.3        1 UNL1     -0.0567
     58 C         -4.584865   1.577612   -3.815668 C.3        1 UNL1     0.0210
     59 C         -4.081638   3.138056   1.86688 C.3        1 UNL1     0.0372
     60 C         -3.239194   2.15995   -1.291335 C.2        1 UNL1     -0.0208
     61 C         -3.118267   3.385282   -1.803861 C.2        1 UNL1     0.0882
     62 H         0.8293   2.913949   -3.614903 H        1 UNL1     0.0365
     63 H         0.752386   3.016196   -5.653005 H        1 UNL1     0.0576
     64 H         3.463818   2.261533   -6.908152 H        1 UNL1     0.0615
     65 H         0.6726   2.949871   -8.130098 H        1 UNL1     0.0622
     66 H         -4.317281   1.373049   0.301981 H        1 UNL1     0.0645
     67 H         -3.129675   -0.324995   0.756344 H        1 UNL1     0.0362
     68 H         -2.293668   0.664891   2.527557 H        1 UNL1     0.0741
     69 H         0.176068   1.608935   2.716166 H        1 UNL1     0.0359
     70 H         1.042628   3.073355   1.265629 H        1 UNL1     0.0600
     71 H         2.307049   1.634195   0.248393 H        1 UNL1     0.0348
     72 H         1.385972   2.715288   -1.730218 H        1 UNL1     0.0602
     73 H         -3.450607   1.336972   -1.927936 H        1 UNL1     0.0628
     74 H         -2.845242   4.270315   -1.228178 H        1 UNL1     0.1022
     75 H         3.792135   1.403298   -10.27516 H        1 UNL1     0.0279
     76 H         2.547031   0.697077   -11.22609 H        1 UNL1     0.0279
     77 H         3.097693   2.401596   -11.484327 H        1 UNL1     0.0279
     78 H         0.546106   0.102934   -10.456405 H        1 UNL1     0.1553
     79 H         1.276204   -0.45971   -8.702377 H        1 UNL1     0.1484
     80 H         0.044955   -2.107208   -5.507182 H        1 UNL1     0.0317
     81 H         -0.998119   -1.824162   -6.893474 H        1 UNL1     0.0317
     82 H         0.841763   -2.45139   -8.479388 H        1 UNL1     0.0428
     83 H         0.47708   -3.720007   -7.330772 H        1 UNL1     0.0428
     84 H         3.88035   -1.30939   -6.488267 H        1 UNL1     0.0428
     85 H         3.026342   -0.94965   -7.947849 H        1 UNL1     0.0428
     86 H         2.550904   0.499279   -5.973156 H        1 UNL1     0.0317
     87 H         1.982724   -0.801214   -5.030691 H        1 UNL1     0.0317
     88 H         2.94703   -3.750356   -8.562452 H        1 UNL1     0.0429
     89 H         4.165025   -3.520836   -7.305454 H        1 UNL1     0.0429
     90 H         1.974165   -5.564431   -7.563695 H        1 UNL1     0.0308
     91 H         3.611341   -6.985393   -6.323842 H        1 UNL1     0.0233
     92 H         4.416118   -6.154384   -7.679294 H        1 UNL1     0.0233
     93 H         4.6561   -5.599028   -6.036555 H        1 UNL1     0.0233
     94 H         2.257062   -3.937157   -5.113588 H        1 UNL1     0.0233
     95 H         0.878517   -4.84641   -5.751712 H        1 UNL1     0.0233
     96 H         2.171081   -5.694109   -4.871555 H        1 UNL1     0.0233
     97 H         -6.394774   4.312146   -8.421792 H        1 UNL1     0.0280
     98 H         -6.84624   3.244905   -7.120115 H        1 UNL1     0.0280
     99 H         -6.080569   4.818991   -6.751699 H        1 UNL1     0.0280
     100 H         -4.080392   3.214046   -10.510139 H        1 UNL1     0.2922
     101 H         3.67225   3.97301   -3.364226 H        1 UNL1     0.0236
     102 H         2.385492   4.264105   -2.129082 H        1 UNL1     0.0236
     103 H         2.263138   4.917458   -3.733344 H        1 UNL1     0.0236
     104 H         3.461594   2.0254   -1.014439 H        1 UNL1     0.2098
     105 H         1.34999   -0.579521   -0.923293 H        1 UNL1     0.0234
     106 H         1.41909   -0.352952   0.847297 H        1 UNL1     0.0234
     107 H         0.0   0.0   0.0 H        1 UNL1     0.0234
     108 H         0.008388   3.415986   -0.938256 H        1 UNL1     0.2098
     109 H         -2.691738   -0.605104   -1.49032 H        1 UNL1     0.0234
     110 H         -1.200742   0.388155   -1.434015 H        1 UNL1     0.0234
     111 H         -1.267939   -1.135146   -0.619225 H        1 UNL1     0.0234
     112 H         1.665423   -1.325263   1.203236 H        1 UNL1     0.0342
     113 H         1.189479   0.404293   1.345903 H        1 UNL1     0.0342
     114 H         2.305921   -0.313864   2.510282 H        1 UNL1     0.0342
     115 H         -0.723116   3.471946   3.519428 H        1 UNL1     0.0234
     116 H         -1.984002   3.598184   2.288568 H        1 UNL1     0.0234
     117 H         -2.051996   2.414011   3.610218 H        1 UNL1     0.0234
     118 H         -5.255552   1.697902   -2.946924 H        1 UNL1     0.0309
     119 H         -5.17065   1.239216   -4.676219 H        1 UNL1     0.0309
     120 H         -3.95009   0.731878   -3.529485 H        1 UNL1     0.0309
     121 H         -3.730988   3.956587   2.494898 H        1 UNL1     0.0524
     122 H         -5.013421   3.469547   1.379096 H        1 UNL1     0.0524
     123 H         -4.293948   2.263362   2.475098 H        1 UNL1     0.0524
@<TRIPOS>BOND
     1     1     2    1
     2     1    42    1
     3     2     3    2
     4     3     4    1
     5     4     5    2
     6     5     7    1
     7     6    75    1
     8     6    76    1
     9     6    77    1
    10     7     9   am
    11     9    10    1
    12    10    11    2
    13    10    43    1
    14    11    14    1
    15    11    15    1
    16    12    13   ar
    17    12    27   ar
    18    12    43    1
    19    13    14    1
    20    13    30   ar
    21    14    17    2
    22    15    16    1
    23    16    17    1
    24    16    18    1
    25    16    22    1
    26    18    19    1
    27    19    20    1
    28    20    21    1
    29    21    22    1
    30    23    24    1
    31    23    88    1
    32    23    89    1
    33    24    25    1
    34    24    26    1
    35    24    90    1
    36    25    91    1
    37    25    92    1
    38    25    93    1
    39    26    94    1
    40    26    95    1
    41    26    96    1
    42    27    28   ar
    43    28    29   ar
    44    29    30   ar
    45    29    31    1
    46    30    33    1
    47    31    32    1
    48    32    33    1
    49    32    35    1
    50    34    97    1
    51    34    98    1
    52    34    99    1
    53    35    61    1
    54    36    37    1
    55    36    60    1
    56    37    38    1
    57    38    39    1
    58    39    40    1
    59    40    41    1
    60    41    42    1
    61    45   100    1
    62    47   101    1
    63    47   102    1
    64    47   103    1
    65    48   104    1
    66    49   105    1
    67    49   106    1
    68    49   107    1
    69    50   108    1
    70    51    59    1
    71    52   109    1
    72    52   110    1
    73    52   111    1
    74    53    54    1
    75    54    55    2
    76    54    56    1
    77    56   112    1
    78    56   113    1
    79    56   114    1
    80    57   115    1
    81    57   116    1
    82    57   117    1
    83    58   118    1
    84    58   119    1
    85    58   120    1
    86    59   121    1
    87    59   122    1
    88    59   123    1
    89    60    61    2
    90     1    47    1
    91     1    62    1
    92     2    63    1
    93     3    64    1
    94     4    65    1
    95     5     6    1
    96     7     8    2
    97     9    78    1
    98    15    79    1
    99    18    80    1
   100    18    81    1
   101    19    82    1
   102    19    83    1
   103    20    23    1
   104    21    84    1
   105    21    85    1
   106    22    86    1
   107    22    87    1
   108    27    45    1
   109    28    34    1
   110    32    58    1
   111    33    46    2
   112    36    51    1
   113    36    66    1
   114    37    52    1
   115    37    67    1
   116    38    53    1
   117    38    68    1
   118    42    48    1
   119    42    72    1
   120    43    44    2
   121    60    73    1
   122    61    74    1
   123    39    69    1
   124    39    57    1
   125    40    70    1
   126    40    50    1
   127    41    71    1
   128    41    49    1
