@<TRIPOS>MOLECULE
*****
 123 128 0 0 0
SMALL
GASTEIGER

@<TRIPOS>ATOM
     1 C         5.125497   1.850173   0.563823 C.3        1 UNL1     0.0009
     2 C         6.541935   2.719254   -0.258029 C.2        1 UNL1     -0.0787
     3 C         7.830597   2.675769   -0.916439 C.2        1 UNL1     -0.0649
     4 C         8.674092   3.954096   -1.638073 C.2        1 UNL1     -0.0542
     5 C         9.690654   4.299147   -2.562529 C.2        1 UNL1     0.0115
     6 C         10.843452   3.728499   -3.433587 C.3        1 UNL1     -0.0348
     7 C         9.743726   5.797845   -3.135307 C.2        1 UNL1     0.2441
     8 O         10.539115   6.635979   -2.733542 O.2        1 UNL1     -0.2702
     9 N         8.995132   6.007602   -4.306528 N.am        1 UNL1     -0.2772
     10 C         7.69896   6.347221   -3.993608 C.2        1 UNL1     0.1049
     11 C         6.881944   5.343769   -3.729425 C.2        1 UNL1     0.0801
     12 C         6.341906   7.880886   -2.557081 C.ar        1 UNL1     0.0753
     13 C         5.615427   6.720254   -2.140223 C.ar        1 UNL1     0.0305
     14 C         5.777214   5.433573   -2.81352 C.2        1 UNL1     0.0924
     15 N         7.046945   4.023123   -3.917031 N.pl3        1 UNL1     -0.3170
     16 C         5.794329   3.378001   -3.625444 C.3        1 UNL1     0.1275
     17 N         5.122056   4.290884   -2.629243 N.2        1 UNL1     -0.2557
     18 C         4.948378   3.438868   -4.893657 C.3        1 UNL1     0.0016
     19 C         5.731604   2.803928   -6.031637 C.3        1 UNL1     0.0026
     20 N         6.042001   1.426573   -5.67446 N.3        1 UNL1     -0.3018
     21 C         6.801822   1.262227   -4.43348 C.3        1 UNL1     0.0026
     22 C         5.994594   1.903021   -3.303143 C.3        1 UNL1     0.0016
     23 C         6.519104   0.646242   -6.798782 C.3        1 UNL1     0.0012
     24 C         5.37847   0.383109   -7.794508 C.3        1 UNL1     -0.0339
     25 C         5.730491   0.894966   -9.200972 C.3        1 UNL1     -0.0615
     26 C         5.030119   -1.095145   -7.808582 C.3        1 UNL1     -0.0615
     27 C         6.094315   9.129236   -1.991007 C.ar        1 UNL1     0.1347
     28 C         5.121037   9.34738   -1.03226 C.ar        1 UNL1     0.0342
     29 C         4.452144   8.181712   -0.602187 C.ar        1 UNL1     0.1435
     30 C         4.714732   6.918732   -1.134306 C.ar        1 UNL1     0.0774
     31 O         3.402535   8.243834   0.246028 O.3        1 UNL1     -0.4436
     32 C         2.720559   6.992726   0.071349 C.3        1 UNL1     0.3143
     33 C         3.767774   6.04366   -0.475303 C.2        1 UNL1     0.2504
     34 C         4.628976   10.688777   -0.56468 C.3        1 UNL1     -0.0327
     35 O         2.365063   6.515721   1.374937 O.2        1 UNL1     -0.4528
     36 C         -0.813546   4.493301   0.911961 C.3        1 UNL1     0.0854
     37 C         -1.073538   3.244248   -0.015289 C.3        1 UNL1     0.0236
     38 C         -1.639681   1.947886   0.740138 C.3        1 UNL1     0.1131
     39 C         -0.906297   1.410725   2.034694 C.3        1 UNL1     0.0200
     40 C         0.758317   1.315855   2.084682 C.3        1 UNL1     0.0661
     41 C         1.748822   0.603467   0.906118 C.3        1 UNL1     0.0091
     42 C         3.447952   1.031302   0.362689 C.3        1 UNL1     0.0661
     43 C         7.305295   7.727854   -3.675438 C.2        1 UNL1     0.2131
     44 O         7.681717   8.653741   -4.370979 O.2        1 UNL1     -0.2851
     45 O         6.876936   10.199018   -2.42055 O.3        1 UNL1     -0.5056
     46 O         3.820385   4.838576   -0.371103 O.2        1 UNL1     -0.2836
     47 C         5.525597   1.401132   1.994998 C.3        1 UNL1     -0.0566
     48 O         3.939706   -0.366698   0.416452 O.3        1 UNL1     -0.3909
     49 C         0.93044   0.372921   -0.34472 C.3        1 UNL1     -0.0577
     50 O         1.317699   2.542647   2.508708 O.3        1 UNL1     -0.3910
     51 O         -0.940794   4.268804   2.297905 O.3        1 UNL1     -0.3753
     52 C         -0.017051   3.142039   -1.163478 C.3        1 UNL1     -0.0564
     53 O         -2.203712   0.911106   -0.186837 O.3        1 UNL1     -0.4608
     54 C         -2.36801   -0.416461   0.110658 C.2        1 UNL1     0.3042
     55 O         -1.661605   -1.356178   -0.252334 O.2        1 UNL1     -0.2512
     56 C         -3.523696   -0.687936   1.031203 C.3        1 UNL1     0.0332
     57 C         -1.656072   2.02868   3.305183 C.3        1 UNL1     -0.0567
     58 C         1.645388   7.228555   -1.014893 C.3        1 UNL1     0.0210
     59 C         -1.295411   5.420693   3.061623 C.3        1 UNL1     0.0372
     60 C         0.496695   5.168272   0.704976 C.2        1 UNL1     -0.0208
     61 C         1.389908   5.612044   1.590404 C.2        1 UNL1     0.0882
     62 H         4.618591   2.816926   0.669409 H        1 UNL1     0.0365
     63 H         6.242309   3.761677   -0.131349 H        1 UNL1     0.0576
     64 H         8.319584   1.728752   -1.155517 H        1 UNL1     0.0615
     65 H         8.15647   4.845973   -1.274611 H        1 UNL1     0.0622
     66 H         -1.579036   5.223141   0.612954 H        1 UNL1     0.0645
     67 H         -1.944274   3.540228   -0.625841 H        1 UNL1     0.0362
     68 H         -2.602185   2.347227   1.094588 H        1 UNL1     0.0741
     69 H         -1.207441   0.385722   2.205253 H        1 UNL1     0.0359
     70 H         0.884825   0.639771   2.951842 H        1 UNL1     0.0600
     71 H         1.821388   -0.425146   1.31065 H        1 UNL1     0.0348
     72 H         3.320496   1.493968   1.352138 H        1 UNL1     0.0602
     73 H         0.615183   5.392203   -0.326074 H        1 UNL1     0.0628
     74 H         1.371919   5.377075   2.655159 H        1 UNL1     0.1022
     75 H         10.870794   2.614144   -3.366505 H        1 UNL1     0.0279
     76 H         10.770506   3.896926   -4.505678 H        1 UNL1     0.0279
     77 H         11.838916   3.993383   -3.048113 H        1 UNL1     0.0279
     78 H         8.963698   5.148098   -4.850902 H        1 UNL1     0.1553
     79 H         7.729256   3.629863   -4.538909 H        1 UNL1     0.1484
     80 H         4.001602   2.914162   -4.717408 H        1 UNL1     0.0317
     81 H         4.691371   4.473899   -5.143277 H        1 UNL1     0.0317
     82 H         6.646873   3.369228   -6.26105 H        1 UNL1     0.0428
     83 H         5.110895   2.859588   -6.92644 H        1 UNL1     0.0428
     84 H         6.952538   0.216855   -4.146611 H        1 UNL1     0.0428
     85 H         7.820611   1.664235   -4.521659 H        1 UNL1     0.0428
     86 H         6.512602   1.648549   -2.397108 H        1 UNL1     0.0317
     87 H         5.029702   1.392583   -3.195757 H        1 UNL1     0.0317
     88 H         7.301346   1.2241   -7.308167 H        1 UNL1     0.0429
     89 H         6.978636   -0.293276   -6.465751 H        1 UNL1     0.0429
     90 H         4.474985   0.900479   -7.450626 H        1 UNL1     0.0308
     91 H         6.742702   0.597359   -9.490734 H        1 UNL1     0.0233
     92 H         5.019988   0.515639   -9.939148 H        1 UNL1     0.0233
     93 H         5.688454   1.988724   -9.269987 H        1 UNL1     0.0233
     94 H         4.438916   -1.335413   -8.698856 H        1 UNL1     0.0233
     95 H         5.944519   -1.694217   -7.839351 H        1 UNL1     0.0233
     96 H         4.452737   -1.377501   -6.923781 H        1 UNL1     0.0233
     97 H         3.778579   10.600116   0.104792 H        1 UNL1     0.0280
     98 H         5.396385   11.23882   -0.004509 H        1 UNL1     0.0280
     99 H         4.322711   11.293128   -1.434195 H        1 UNL1     0.0280
     100 H         6.390841   10.968436   -2.659987 H        1 UNL1     0.2922
     101 H         4.646887   1.032488   2.523795 H        1 UNL1     0.0236
     102 H         6.046376   2.175452   2.557315 H        1 UNL1     0.0236
     103 H         6.222822   0.546801   1.981243 H        1 UNL1     0.0236
     104 H         4.269759   -0.528654   1.321884 H        1 UNL1     0.2098
     105 H         0.734502   1.271023   -0.925093 H        1 UNL1     0.0234
     106 H         1.301832   -0.421541   -0.991887 H        1 UNL1     0.0234
     107 H         0.0   -0.0   0.0 H        1 UNL1     0.0234
     108 H         1.157981   3.194819   1.799532 H        1 UNL1     0.2098
     109 H         1.009373   3.064352   -0.778601 H        1 UNL1     0.0234
     110 H         -0.212309   2.315961   -1.85573 H        1 UNL1     0.0234
     111 H         -0.027663   4.034116   -1.803817 H        1 UNL1     0.0234
     112 H         -3.585977   -1.7594   1.244353 H        1 UNL1     0.0342
     113 H         -3.458757   -0.109601   1.951613 H        1 UNL1     0.0342
     114 H         -4.448635   -0.392528   0.517018 H        1 UNL1     0.0342
     115 H         -2.738945   1.846295   3.26898 H        1 UNL1     0.0234
     116 H         -1.291402   1.651558   4.262703 H        1 UNL1     0.0234
     117 H         -1.626741   3.131346   3.339976 H        1 UNL1     0.0234
     118 H         0.725165   7.673659   -0.597666 H        1 UNL1     0.0309
     119 H         2.000377   7.850267   -1.842938 H        1 UNL1     0.0309
     120 H         1.292161   6.295019   -1.466388 H        1 UNL1     0.0309
     121 H         -0.925425   5.270756   4.075519 H        1 UNL1     0.0524
     122 H         -0.830105   6.341054   2.671157 H        1 UNL1     0.0524
     123 H         -2.374234   5.547747   3.07125 H        1 UNL1     0.0524
@<TRIPOS>BOND
     1     1     2    1
     2     1    42    1
     3     2     3    2
     4     3     4    1
     5     4     5    2
     6     5     7    1
     7     6    75    1
     8     6    76    1
     9     6    77    1
    10     7     9   am
    11     9    10    1
    12    10    11    2
    13    10    43    1
    14    11    14    1
    15    11    15    1
    16    12    13   ar
    17    12    27   ar
    18    12    43    1
    19    13    14    1
    20    13    30   ar
    21    14    17    2
    22    15    16    1
    23    16    17    1
    24    16    18    1
    25    16    22    1
    26    18    19    1
    27    19    20    1
    28    20    21    1
    29    21    22    1
    30    23    24    1
    31    23    88    1
    32    23    89    1
    33    24    25    1
    34    24    26    1
    35    24    90    1
    36    25    91    1
    37    25    92    1
    38    25    93    1
    39    26    94    1
    40    26    95    1
    41    26    96    1
    42    27    28   ar
    43    28    29   ar
    44    29    30   ar
    45    29    31    1
    46    30    33    1
    47    31    32    1
    48    32    33    1
    49    32    35    1
    50    34    97    1
    51    34    98    1
    52    34    99    1
    53    35    61    1
    54    36    37    1
    55    36    60    1
    56    37    38    1
    57    38    39    1
    58    39    40    1
    59    40    41    1
    60    41    42    1
    61    45   100    1
    62    47   101    1
    63    47   102    1
    64    47   103    1
    65    48   104    1
    66    49   105    1
    67    49   106    1
    68    49   107    1
    69    50   108    1
    70    51    59    1
    71    52   109    1
    72    52   110    1
    73    52   111    1
    74    53    54    1
    75    54    55    2
    76    54    56    1
    77    56   112    1
    78    56   113    1
    79    56   114    1
    80    57   115    1
    81    57   116    1
    82    57   117    1
    83    58   118    1
    84    58   119    1
    85    58   120    1
    86    59   121    1
    87    59   122    1
    88    59   123    1
    89    60    61    2
    90     1    47    1
    91     1    62    1
    92     2    63    1
    93     3    64    1
    94     4    65    1
    95     5     6    1
    96     7     8    2
    97     9    78    1
    98    15    79    1
    99    18    80    1
   100    18    81    1
   101    19    82    1
   102    19    83    1
   103    20    23    1
   104    21    84    1
   105    21    85    1
   106    22    86    1
   107    22    87    1
   108    27    45    1
   109    28    34    1
   110    32    58    1
   111    33    46    2
   112    36    51    1
   113    36    66    1
   114    37    52    1
   115    37    67    1
   116    38    53    1
   117    38    68    1
   118    42    48    1
   119    42    72    1
   120    43    44    2
   121    60    73    1
   122    61    74    1
   123    39    69    1
   124    39    57    1
   125    40    70    1
   126    40    50    1
   127    41    71    1
   128    41    49    1
