@<TRIPOS>MOLECULE
*****
 123 128 0 0 0
SMALL
GASTEIGER

@<TRIPOS>ATOM
     1 C         4.136726   0.625181   -1.026995 C.3        1 UNL1     0.0009
     2 C         5.562655   0.944764   0.113895 C.2        1 UNL1     -0.0787
     3 C         6.548628   1.847474   0.669792 C.2        1 UNL1     -0.0649
     4 C         7.648495   1.544681   1.920778 C.2        1 UNL1     -0.0542
     5 C         8.487563   2.135646   2.897406 C.2        1 UNL1     0.0115
     6 C         9.09644   3.479459   3.383985 C.3        1 UNL1     -0.0348
     7 C         9.00335   1.238076   4.124321 C.2        1 UNL1     0.2441
     8 O         10.133189   0.772268   4.179215 O.2        1 UNL1     -0.2702
     9 N         8.161488   1.239807   5.250118 N.am        1 UNL1     -0.2772
     10 C         7.210213   0.251754   5.139897 C.2        1 UNL1     0.1049
     11 C         6.142226   0.549486   4.422275 C.2        1 UNL1     0.0801
     12 C         6.926045   -2.179546   4.624765 C.ar        1 UNL1     0.0753
     13 C         5.91   -1.783994   3.697511 C.ar        1 UNL1     0.0305
     14 C         5.395262   -0.416899   3.663644 C.2        1 UNL1     0.0924
     15 N         5.723883   1.735085   3.947016 N.pl3        1 UNL1     -0.3170
     16 C         4.41597   1.543879   3.378634 C.3        1 UNL1     0.1275
     17 N         4.398647   0.097327   2.948621 N.2        1 UNL1     -0.2557
     18 C         3.406908   1.659349   4.517126 C.3        1 UNL1     0.0016
     19 C         3.602149   3.000662   5.205855 C.3        1 UNL1     0.0026
     20 N         3.410888   4.061549   4.226587 N.3        1 UNL1     -0.3018
     21 C         4.296142   3.999422   3.061754 C.3        1 UNL1     0.0026
     22 C         4.080152   2.645946   2.382531 C.3        1 UNL1     0.0016
     23 C         3.278671   5.371407   4.832751 C.3        1 UNL1     0.0012
     24 C         4.586394   5.776186   5.531157 C.3        1 UNL1     -0.0339
     25 C         5.60406   6.349073   4.53105 C.3        1 UNL1     -0.0615
     26 C         4.295088   6.755376   6.655037 C.3        1 UNL1     -0.0615
     27 C         7.325491   -3.509459   4.733825 C.ar        1 UNL1     0.1347
     28 C         6.756026   -4.534733   3.99995 C.ar        1 UNL1     0.0342
     29 C         5.792207   -4.114815   3.058734 C.ar        1 UNL1     0.1435
     30 C         5.407799   -2.781331   2.912892 C.ar        1 UNL1     0.0774
     31 O         5.068461   -5.005407   2.345961 O.3        1 UNL1     -0.4436
     32 C         3.925843   -4.264021   1.89248 C.3        1 UNL1     0.3143
     33 C         4.361953   -2.812937   1.911906 C.2        1 UNL1     0.2504
     34 C         6.952854   -6.005685   4.240073 C.3        1 UNL1     -0.0327
     35 O         3.707001   -4.615546   0.520697 O.2        1 UNL1     -0.4528
     36 C         -0.029869   -4.281525   -0.055772 C.3        1 UNL1     0.0854
     37 C         -0.961462   -3.025691   0.150483 C.3        1 UNL1     0.0236
     38 C         -1.813901   -2.597526   -1.138612 C.3        1 UNL1     0.1131
     39 C         -1.088335   -2.404043   -2.530872 C.3        1 UNL1     0.0200
     40 C         0.368321   -1.59611   -2.619399 C.3        1 UNL1     0.0661
     41 C         0.708589   -0.082827   -1.932522 C.3        1 UNL1     0.0091
     42 C         2.272672   0.589073   -1.248708 C.3        1 UNL1     0.0661
     43 C         7.477371   -1.140707   5.529812 C.2        1 UNL1     0.2131
     44 O         8.026944   -1.391915   6.586979 O.2        1 UNL1     -0.2851
     45 O         8.352719   -3.803218   5.628222 O.3        1 UNL1     -0.5056
     46 O         3.953608   -1.894294   1.237219 O.2        1 UNL1     -0.2836
     47 C         4.630379   0.539772   -2.496346 C.3        1 UNL1     -0.0566
     48 O         2.167972   1.879208   -1.972382 O.3        1 UNL1     -0.3909
     49 C         -0.387713   0.264901   -0.950329 C.3        1 UNL1     -0.0577
     50 O         1.446987   -2.4817   -2.395939 O.3        1 UNL1     -0.3910
     51 O         0.073014   -4.76187   -1.377178 O.3        1 UNL1     -0.3753
     52 C         -0.313584   -1.971364   1.106306 C.3        1 UNL1     -0.0564
     53 O         -2.932121   -1.64533   -0.830016 O.3        1 UNL1     -0.4608
     54 C         -3.334296   -0.60598   -1.627473 C.2        1 UNL1     0.3042
     55 O         -3.089612   0.590186   -1.475312 O.2        1 UNL1     -0.2512
     56 C         -4.110826   -1.041808   -2.837336 C.3        1 UNL1     0.0332
     57 C         -1.231315   -3.774071   -3.34374 C.3        1 UNL1     -0.0567
     58 C         2.822047   -4.467488   2.956325 C.3        1 UNL1     0.0210
     59 C         -0.74624   -5.892962   -1.669269 C.3        1 UNL1     0.0372
     60 C         1.359875   -4.123922   0.453082 C.2        1 UNL1     -0.0208
     61 C         2.526959   -4.446382   -0.106097 C.2        1 UNL1     0.0882
     62 H         4.091912   -0.404269   -0.651581 H        1 UNL1     0.0365
     63 H         5.737216   -0.058711   0.50764 H        1 UNL1     0.0576
     64 H         6.555895   2.910967   0.420719 H        1 UNL1     0.0615
     65 H         7.621236   0.457551   2.034303 H        1 UNL1     0.0622
     66 H         -0.488249   -5.069129   0.558732 H        1 UNL1     0.0645
     67 H         -1.75442   -3.388404   0.8274 H        1 UNL1     0.0362
     68 H         -2.435006   -3.498618   -1.256017 H        1 UNL1     0.0741
     69 H         -1.725823   -1.814996   -3.176659 H        1 UNL1     0.0359
     70 H         0.403828   -1.385436   -3.705408 H        1 UNL1     0.0600
     71 H         0.45422   0.577755   -2.78451 H        1 UNL1     0.0348
     72 H         2.560683   -0.256225   -1.890454 H        1 UNL1     0.0602
     73 H         1.327152   -3.800149   1.4637 H        1 UNL1     0.0628
     74 H         2.65228   -4.730469   -1.15148 H        1 UNL1     0.1022
     75 H         8.33408   4.294228   3.339346 H        1 UNL1     0.0279
     76 H         9.419953   3.517948   4.421736 H        1 UNL1     0.0279
     77 H         9.868609   3.867549   2.70366 H        1 UNL1     0.0279
     78 H         7.672487   2.130508   5.310176 H        1 UNL1     0.1553
     79 H         6.038809   2.619585   4.301154 H        1 UNL1     0.1484
     80 H         2.393889   1.562791   4.10818 H        1 UNL1     0.0317
     81 H         3.533605   0.84325   5.236557 H        1 UNL1     0.0317
     82 H         4.591487   3.074192   5.680952 H        1 UNL1     0.0428
     83 H         2.873998   3.0614   6.015272 H        1 UNL1     0.0428
     84 H         4.078835   4.75928   2.304651 H        1 UNL1     0.0428
     85 H         5.344045   4.186363   3.334279 H        1 UNL1     0.0428
     86 H         4.640375   2.688781   1.466942 H        1 UNL1     0.0317
     87 H         3.04148   2.559735   2.040732 H        1 UNL1     0.0317
     88 H         3.068964   6.096904   4.0359 H        1 UNL1     0.0429
     89 H         2.431017   5.404742   5.529275 H        1 UNL1     0.0429
     90 H         5.026232   4.893166   6.009728 H        1 UNL1     0.0308
     91 H         5.126231   7.037806   3.827895 H        1 UNL1     0.0233
     92 H         6.408042   6.871661   5.054619 H        1 UNL1     0.0233
     93 H         6.086701   5.567203   3.932241 H        1 UNL1     0.0233
     94 H         4.767759   7.721249   6.44645 H        1 UNL1     0.0233
     95 H         3.216952   6.918648   6.738267 H        1 UNL1     0.0233
     96 H         4.671234   6.38635   7.613318 H        1 UNL1     0.0233
     97 H         7.113446   -6.229143   5.290553 H        1 UNL1     0.0280
     98 H         6.077359   -6.595119   3.937862 H        1 UNL1     0.0280
     99 H         7.830553   -6.357863   3.67376 H        1 UNL1     0.0280
     100 H         8.937818   -3.086792   5.801474 H        1 UNL1     0.2922
     101 H         4.643744   -0.500827   -2.819816 H        1 UNL1     0.0236
     102 H         5.590396   1.029795   -2.655174 H        1 UNL1     0.0236
     103 H         3.939953   1.041168   -3.194993 H        1 UNL1     0.0236
     104 H         2.602272   1.766526   -2.840516 H        1 UNL1     0.2098
     105 H         -0.646768   1.320303   -0.921563 H        1 UNL1     0.0234
     106 H         -1.288127   -0.342816   -1.038994 H        1 UNL1     0.0234
     107 H         0.0   0.0   0.0 H        1 UNL1     0.0234
     108 H         1.689079   -2.867781   -3.259711 H        1 UNL1     0.2098
     109 H         -0.12408   -2.379743   2.108816 H        1 UNL1     0.0234
     110 H         0.609587   -1.538031   0.706654 H        1 UNL1     0.0234
     111 H         -0.970699   -1.10464   1.257756 H        1 UNL1     0.0234
     112 H         -4.382267   -0.169401   -3.439475 H        1 UNL1     0.0342
     113 H         -3.565653   -1.772937   -3.432382 H        1 UNL1     0.0342
     114 H         -5.04036   -1.51743   -2.495406 H        1 UNL1     0.0342
     115 H         -1.327488   -3.599719   -4.424268 H        1 UNL1     0.0234
     116 H         -0.400633   -4.466941   -3.195589 H        1 UNL1     0.0234
     117 H         -2.16888   -4.315991   -3.131052 H        1 UNL1     0.0234
     118 H         2.909308   -3.746031   3.787524 H        1 UNL1     0.0309
     119 H         1.810495   -4.415113   2.54133 H        1 UNL1     0.0309
     120 H         2.894563   -5.439305   3.456744 H        1 UNL1     0.0309
     121 H         -0.276702   -6.437514   -2.488021 H        1 UNL1     0.0524
     122 H         -0.825939   -6.583964   -0.813581 H        1 UNL1     0.0524
     123 H         -1.743187   -5.570848   -1.956382 H        1 UNL1     0.0524
@<TRIPOS>BOND
     1     1     2    1
     2     1    42    1
     3     2     3    2
     4     3     4    1
     5     4     5    2
     6     5     7    1
     7     6    75    1
     8     6    76    1
     9     6    77    1
    10     7     9   am
    11     9    10    1
    12    10    11    2
    13    10    43    1
    14    11    14    1
    15    11    15    1
    16    12    13   ar
    17    12    27   ar
    18    12    43    1
    19    13    14    1
    20    13    30   ar
    21    14    17    2
    22    15    16    1
    23    16    17    1
    24    16    18    1
    25    16    22    1
    26    18    19    1
    27    19    20    1
    28    20    21    1
    29    21    22    1
    30    23    24    1
    31    23    88    1
    32    23    89    1
    33    24    25    1
    34    24    26    1
    35    24    90    1
    36    25    91    1
    37    25    92    1
    38    25    93    1
    39    26    94    1
    40    26    95    1
    41    26    96    1
    42    27    28   ar
    43    28    29   ar
    44    29    30   ar
    45    29    31    1
    46    30    33    1
    47    31    32    1
    48    32    33    1
    49    32    35    1
    50    34    97    1
    51    34    98    1
    52    34    99    1
    53    35    61    1
    54    36    37    1
    55    36    60    1
    56    37    38    1
    57    38    39    1
    58    39    40    1
    59    40    41    1
    60    41    42    1
    61    45   100    1
    62    47   101    1
    63    47   102    1
    64    47   103    1
    65    48   104    1
    66    49   105    1
    67    49   106    1
    68    49   107    1
    69    50   108    1
    70    51    59    1
    71    52   109    1
    72    52   110    1
    73    52   111    1
    74    53    54    1
    75    54    55    2
    76    54    56    1
    77    56   112    1
    78    56   113    1
    79    56   114    1
    80    57   115    1
    81    57   116    1
    82    57   117    1
    83    58   118    1
    84    58   119    1
    85    58   120    1
    86    59   121    1
    87    59   122    1
    88    59   123    1
    89    60    61    2
    90     1    47    1
    91     1    62    1
    92     2    63    1
    93     3    64    1
    94     4    65    1
    95     5     6    1
    96     7     8    2
    97     9    78    1
    98    15    79    1
    99    18    80    1
   100    18    81    1
   101    19    82    1
   102    19    83    1
   103    20    23    1
   104    21    84    1
   105    21    85    1
   106    22    86    1
   107    22    87    1
   108    27    45    1
   109    28    34    1
   110    32    58    1
   111    33    46    2
   112    36    51    1
   113    36    66    1
   114    37    52    1
   115    37    67    1
   116    38    53    1
   117    38    68    1
   118    42    48    1
   119    42    72    1
   120    43    44    2
   121    60    73    1
   122    61    74    1
   123    39    69    1
   124    39    57    1
   125    40    70    1
   126    40    50    1
   127    41    71    1
   128    41    49    1
