@<TRIPOS>MOLECULE
*****
 123 128 0 0 0
SMALL
GASTEIGER

@<TRIPOS>ATOM
     1 C         4.749701   2.629586   -0.724493 C.3        1 UNL1     0.0009
     2 C         6.216534   2.875503   -1.831272 C.2        1 UNL1     -0.0787
     3 C         7.602281   2.611906   -2.157261 C.2        1 UNL1     -0.0649
     4 C         8.456337   3.093423   -3.53751 C.2        1 UNL1     -0.0542
     5 C         9.592122   2.842684   -4.346337 C.2        1 UNL1     0.0115
     6 C         10.925759   2.050278   -4.428964 C.3        1 UNL1     -0.0348
     7 C         9.626692   3.429089   -5.840299 C.2        1 UNL1     0.2441
     8 O         10.265912   4.425236   -6.149516 O.2        1 UNL1     -0.2702
     9 N         9.087892   2.577085   -6.820061 N.am        1 UNL1     -0.2772
     10 C         7.733367   2.784612   -6.944624 C.2        1 UNL1     0.1049
     11 C         6.96582   2.158129   -6.071346 C.2        1 UNL1     0.0801
     12 C         6.019417   4.586192   -7.216696 C.ar        1 UNL1     0.0753
     13 C         5.325689   3.983506   -6.119372 C.ar        1 UNL1     0.0305
     14 C         5.710031   2.67387   -5.597658 C.2        1 UNL1     0.0924
     15 N         7.268186   1.178998   -5.20163 N.pl3        1 UNL1     -0.3170
     16 C         6.039768   0.727472   -4.603827 C.3        1 UNL1     0.1275
     17 N         5.126839   1.927759   -4.663777 N.2        1 UNL1     -0.2557
     18 C         5.435118   -0.311799   -5.542985 C.3        1 UNL1     0.0016
     19 C         6.459996   -1.410073   -5.777526 C.3        1 UNL1     0.0026
     20 N         6.810893   -2.004082   -4.49493 N.3        1 UNL1     -0.3018
     21 C         7.344408   -1.069293   -3.502004 C.3        1 UNL1     0.0026
     22 C         6.296914   0.022786   -3.278368 C.3        1 UNL1     0.0016
     23 C         7.544992   -3.246374   -4.630766 C.3        1 UNL1     0.0012
     24 C         6.628379   -4.35794   -5.165553 C.3        1 UNL1     -0.0339
     25 C         6.766654   -4.516696   -6.68862 C.3        1 UNL1     -0.0615
     26 C         6.912404   -5.661428   -4.439585 C.3        1 UNL1     -0.0615
     27 C         5.573467   5.776492   -7.786285 C.ar        1 UNL1     0.1347
     28 C         4.428405   6.433038   -7.371759 C.ar        1 UNL1     0.0342
     29 C         3.789137   5.84746   -6.258386 C.ar        1 UNL1     0.1435
     30 C         4.244825   4.674938   -5.654432 C.ar        1 UNL1     0.0774
     31 O         2.601859   6.306156   -5.805644 O.3        1 UNL1     -0.4436
     32 C         2.066083   5.2228   -5.030947 C.3        1 UNL1     0.3143
     33 C         3.26811   4.395389   -4.622615 C.2        1 UNL1     0.2504
     34 C         3.753135   7.567389   -8.091034 C.3        1 UNL1     -0.0327
     35 O         1.520325   5.785862   -3.831629 O.2        1 UNL1     -0.4528
     36 C         -1.348114   3.512272   -2.826177 C.3        1 UNL1     0.0854
     37 C         -1.334283   1.963798   -2.526913 C.3        1 UNL1     0.0236
     38 C         -1.921143   1.547134   -1.093828 C.3        1 UNL1     0.1131
     39 C         -1.393114   2.26905   0.210891 C.3        1 UNL1     0.0200
     40 C         0.237117   2.556258   0.416548 C.3        1 UNL1     0.0661
     41 C         1.478764   1.416344   0.225449 C.3        1 UNL1     0.0091
     42 C         3.207961   1.625489   -0.350345 C.3        1 UNL1     0.0661
     43 C         7.178404   3.855079   -7.786331 C.2        1 UNL1     0.2131
     44 O         7.5984   4.034222   -8.915157 O.2        1 UNL1     -0.2851
     45 O         6.33186   6.320423   -8.820895 O.3        1 UNL1     -0.5056
     46 O         3.398183   3.683276   -3.652136 O.2        1 UNL1     -0.2836
     47 C         4.919216   3.446133   0.584895 C.3        1 UNL1     -0.0566
     48 O         3.793181   0.831863   0.757261 O.3        1 UNL1     -0.3909
     49 C         0.921535   0.201993   -0.483312 C.3        1 UNL1     -0.0577
     50 O         0.609582   3.781322   -0.181958 O.3        1 UNL1     -0.3910
     51 O         -1.705449   4.345234   -1.746401 O.3        1 UNL1     -0.3753
     52 C         -0.082753   1.262226   -3.148539 C.3        1 UNL1     -0.0564
     53 O         -2.222521   0.082057   -0.971162 O.3        1 UNL1     -0.4608
     54 C         -2.36198   -0.60517   0.206208 C.2        1 UNL1     0.3042
     55 O         -1.609658   -1.465102   0.662681 O.2        1 UNL1     -0.2512
     56 C         -3.555258   -0.179391   1.013371 C.3        1 UNL1     0.0332
     57 C         -2.407807   3.458525   0.54812 C.3        1 UNL1     -0.0567
     58 C         1.1897   4.388156   -5.993679 C.3        1 UNL1     0.0210
     59 C         -2.284268   5.594913   -2.119413 C.3        1 UNL1     0.0372
     60 C         -0.080932   4.055797   -3.386526 C.2        1 UNL1     -0.0208
     61 C         0.598528   5.160268   -3.074722 C.2        1 UNL1     0.0882
     62 H         4.15564   3.250533   -1.405836 H        1 UNL1     0.0365
     63 H         5.815714   3.600906   -2.542331 H        1 UNL1     0.0576
     64 H         8.201335   1.903793   -1.580358 H        1 UNL1     0.0615
     65 H         7.811166   3.849887   -3.992482 H        1 UNL1     0.0622
     66 H         -2.103294   3.634131   -3.615418 H        1 UNL1     0.0645
     67 H         -2.101206   1.552622   -3.206121 H        1 UNL1     0.0362
     68 H         -2.960954   1.887209   -1.214925 H        1 UNL1     0.0741
     69 H         -1.636337   1.657603   1.069601 H        1 UNL1     0.0359
     70 H         0.258849   2.761758   1.503911 H        1 UNL1     0.0600
     71 H         1.559803   1.042695   1.265053 H        1 UNL1     0.0348
     72 H         2.86664   2.625569   -0.045951 H        1 UNL1     0.0602
     73 H         0.203654   3.478292   -4.23077 H        1 UNL1     0.0628
     74 H         0.407241   5.773861   -2.193728 H        1 UNL1     0.1022
     75 H         11.060536   1.413926   -3.521261 H        1 UNL1     0.0279
     76 H         11.011083   1.327035   -5.236868 H        1 UNL1     0.0279
     77 H         11.811008   2.700442   -4.37132 H        1 UNL1     0.0279
     78 H         9.225008   1.607311   -6.542905 H        1 UNL1     0.1553
     79 H         8.08125   0.596114   -5.279765 H        1 UNL1     0.1484
     80 H         4.517616   -0.709663   -5.092807 H        1 UNL1     0.0317
     81 H         5.144749   0.143728   -6.495787 H        1 UNL1     0.0317
     82 H         7.352955   -1.029852   -6.295183 H        1 UNL1     0.0428
     83 H         6.008986   -2.139421   -6.451093 H        1 UNL1     0.0428
     84 H         7.524689   -1.524673   -2.52326 H        1 UNL1     0.0428
     85 H         8.326474   -0.675172   -3.797863 H        1 UNL1     0.0428
     86 H         6.661288   0.609336   -2.455459 H        1 UNL1     0.0317
     87 H         5.37296   -0.419009   -2.885655 H        1 UNL1     0.0317
     88 H         8.357199   -3.086039   -5.351812 H        1 UNL1     0.0429
     89 H         8.011064   -3.539996   -3.681379 H        1 UNL1     0.0429
     90 H         5.586514   -4.106892   -4.933807 H        1 UNL1     0.0308
     91 H         7.801867   -4.726001   -6.974328 H        1 UNL1     0.0233
     92 H         6.124269   -5.321796   -7.052987 H        1 UNL1     0.0233
     93 H         6.463073   -3.613639   -7.231906 H        1 UNL1     0.0233
     94 H         6.405051   -6.491986   -4.942179 H        1 UNL1     0.0233
     95 H         7.986358   -5.867608   -4.448267 H        1 UNL1     0.0233
     96 H         6.568628   -5.623486   -3.402113 H        1 UNL1     0.0233
     97 H         2.842554   7.882759   -7.590421 H        1 UNL1     0.0280
     98 H         4.390103   8.459828   -8.146541 H        1 UNL1     0.0280
     99 H         3.493261   7.252529   -9.11496 H        1 UNL1     0.0280
     100 H         5.849158   6.496881   -9.609237 H        1 UNL1     0.2922
     101 H         4.033513   3.328434   1.208861 H        1 UNL1     0.0236
     102 H         5.158897   4.494188   0.408492 H        1 UNL1     0.0236
     103 H         5.749934   3.068238   1.204004 H        1 UNL1     0.0236
     104 H         4.054752   1.456671   1.461651 H        1 UNL1     0.2098
     105 H         0.716764   0.353443   -1.540168 H        1 UNL1     0.0234
     106 H         1.494542   -0.713522   -0.336945 H        1 UNL1     0.0234
     107 H         0.0   -0.0   0.0 H        1 UNL1     0.0234
     108 H         0.474635   3.686766   -1.144568 H        1 UNL1     0.2098
     109 H         0.859965   1.683496   -2.772339 H        1 UNL1     0.0234
     110 H         -0.082159   0.176411   -3.004498 H        1 UNL1     0.0234
     111 H         -0.049374   1.386097   -4.239176 H        1 UNL1     0.0234
     112 H         -3.596217   -0.749737   1.946309 H        1 UNL1     0.0342
     113 H         -3.555722   0.891694   1.209896 H        1 UNL1     0.0342
     114 H         -4.460694   -0.412311   0.436224 H        1 UNL1     0.0342
     115 H         -3.430063   3.089757   0.709952 H        1 UNL1     0.0234
     116 H         -2.12787   4.045664   1.425019 H        1 UNL1     0.0234
     117 H         -2.563458   4.155758   -0.293058 H        1 UNL1     0.0234
     118 H         0.177273   4.813775   -6.107027 H        1 UNL1     0.0309
     119 H         1.638639   4.263217   -6.984156 H        1 UNL1     0.0309
     120 H         0.998027   3.377134   -5.61791 H        1 UNL1     0.0309
     121 H         -1.538659   6.145738   -2.692139 H        1 UNL1     0.0524
     122 H         -3.171134   5.469796   -2.762726 H        1 UNL1     0.0524
     123 H         -2.567383   6.15717   -1.234084 H        1 UNL1     0.0524
@<TRIPOS>BOND
     1     1     2    1
     2     1    42    1
     3     2     3    2
     4     3     4    1
     5     4     5    2
     6     5     7    1
     7     6    75    1
     8     6    76    1
     9     6    77    1
    10     7     9   am
    11     9    10    1
    12    10    11    2
    13    10    43    1
    14    11    14    1
    15    11    15    1
    16    12    13   ar
    17    12    27   ar
    18    12    43    1
    19    13    14    1
    20    13    30   ar
    21    14    17    2
    22    15    16    1
    23    16    17    1
    24    16    18    1
    25    16    22    1
    26    18    19    1
    27    19    20    1
    28    20    21    1
    29    21    22    1
    30    23    24    1
    31    23    88    1
    32    23    89    1
    33    24    25    1
    34    24    26    1
    35    24    90    1
    36    25    91    1
    37    25    92    1
    38    25    93    1
    39    26    94    1
    40    26    95    1
    41    26    96    1
    42    27    28   ar
    43    28    29   ar
    44    29    30   ar
    45    29    31    1
    46    30    33    1
    47    31    32    1
    48    32    33    1
    49    32    35    1
    50    34    97    1
    51    34    98    1
    52    34    99    1
    53    35    61    1
    54    36    37    1
    55    36    60    1
    56    37    38    1
    57    38    39    1
    58    39    40    1
    59    40    41    1
    60    41    42    1
    61    45   100    1
    62    47   101    1
    63    47   102    1
    64    47   103    1
    65    48   104    1
    66    49   105    1
    67    49   106    1
    68    49   107    1
    69    50   108    1
    70    51    59    1
    71    52   109    1
    72    52   110    1
    73    52   111    1
    74    53    54    1
    75    54    55    2
    76    54    56    1
    77    56   112    1
    78    56   113    1
    79    56   114    1
    80    57   115    1
    81    57   116    1
    82    57   117    1
    83    58   118    1
    84    58   119    1
    85    58   120    1
    86    59   121    1
    87    59   122    1
    88    59   123    1
    89    60    61    2
    90     1    47    1
    91     1    62    1
    92     2    63    1
    93     3    64    1
    94     4    65    1
    95     5     6    1
    96     7     8    2
    97     9    78    1
    98    15    79    1
    99    18    80    1
   100    18    81    1
   101    19    82    1
   102    19    83    1
   103    20    23    1
   104    21    84    1
   105    21    85    1
   106    22    86    1
   107    22    87    1
   108    27    45    1
   109    28    34    1
   110    32    58    1
   111    33    46    2
   112    36    51    1
   113    36    66    1
   114    37    52    1
   115    37    67    1
   116    38    53    1
   117    38    68    1
   118    42    48    1
   119    42    72    1
   120    43    44    2
   121    60    73    1
   122    61    74    1
   123    39    69    1
   124    39    57    1
   125    40    70    1
   126    40    50    1
   127    41    71    1
   128    41    49    1
