@<TRIPOS>MOLECULE
*****
 123 128 0 0 0
SMALL
GASTEIGER

@<TRIPOS>ATOM
     1 C         2.929428   -0.604445   -4.578251 C.3        1 UNL1     0.0009
     2 C         4.585902   -1.011472   -5.304515 C.2        1 UNL1     -0.0787
     3 C         5.846593   -0.584994   -5.874445 C.2        1 UNL1     -0.0649
     4 C         7.175687   -1.54515   -6.296308 C.2        1 UNL1     -0.0542
     5 C         8.567393   -1.549504   -6.561282 C.2        1 UNL1     0.0115
     6 C         9.803377   -0.640004   -6.803101 C.3        1 UNL1     -0.0348
     7 C         9.363722   -2.942402   -6.509451 C.2        1 UNL1     0.2441
     8 O         9.692492   -3.558704   -7.513746 O.2        1 UNL1     -0.2702
     9 N         9.886125   -3.275574   -5.24761 N.am        1 UNL1     -0.2772
     10 C         8.954021   -3.968356   -4.509669 C.2        1 UNL1     0.1049
     11 C         8.056528   -3.238318   -3.872666 C.2        1 UNL1     0.0801
     12 C         7.35969   -5.892089   -4.630892 C.ar        1 UNL1     0.0753
     13 C         6.362504   -4.995668   -4.130234 C.ar        1 UNL1     0.0305
     14 C         6.711875   -3.675234   -3.611154 C.2        1 UNL1     0.0924
     15 N         8.020559   -1.913113   -3.651159 N.pl3        1 UNL1     -0.3170
     16 C         6.922322   -1.646092   -2.760749 C.3        1 UNL1     0.1275
     17 N         5.942242   -2.763166   -3.024022 N.2        1 UNL1     -0.2557
     18 C         7.432102   -1.856479   -1.338229 C.3        1 UNL1     0.0016
     19 C         8.646901   -0.968499   -1.120642 C.3        1 UNL1     0.0026
     20 N         8.257811   0.417988   -1.338104 N.3        1 UNL1     -0.3018
     21 C         7.697006   0.706379   -2.659731 C.3        1 UNL1     0.0026
     22 C         6.475369   -0.193216   -2.855247 C.3        1 UNL1     0.0016
     23 C         9.251884   1.362837   -0.869357 C.3        1 UNL1     0.0012
     24 C         10.48963   0.623114   -0.337803 C.3        1 UNL1     -0.0339
     25 C         11.270208   -0.056272   -1.474988 C.3        1 UNL1     -0.0615
     26 C         11.368591   1.578435   0.450594 C.3        1 UNL1     -0.0615
     27 C         7.035857   -7.192338   -5.01116 C.ar        1 UNL1     0.1347
     28 C         5.76182   -7.71993   -4.89924 C.ar        1 UNL1     0.0342
     29 C         4.786953   -6.804001   -4.449938 C.ar        1 UNL1     0.1435
     30 C         5.089905   -5.487673   -4.099625 C.ar        1 UNL1     0.0774
     31 O         3.521691   -7.195507   -4.183777 O.3        1 UNL1     -0.4436
     32 C         2.994285   -6.165137   -3.334628 C.3        1 UNL1     0.3143
     33 C         3.834538   -4.939304   -3.630465 C.2        1 UNL1     0.2504
     34 C         5.391566   -9.169396   -5.047768 C.3        1 UNL1     -0.0327
     35 O         1.665158   -5.879013   -3.787185 O.2        1 UNL1     -0.4528
     36 C         -0.262002   -4.759677   -0.714526 C.3        1 UNL1     0.0854
     37 C         0.047024   -3.573535   0.277992 C.3        1 UNL1     0.0236
     38 C         -1.149896   -2.523636   0.469926 C.3        1 UNL1     0.1131
     39 C         -1.846978   -1.887037   -0.79936 C.3        1 UNL1     0.0200
     40 C         -0.931279   -1.352233   -2.086962 C.3        1 UNL1     0.0661
     41 C         0.420284   -0.331778   -1.989191 C.3        1 UNL1     0.0091
     42 C         1.931111   -0.255183   -3.026948 C.3        1 UNL1     0.0661
     43 C         8.766602   -5.42031   -4.64772 C.2        1 UNL1     0.2131
     44 O         9.727174   -6.168425   -4.666741 O.2        1 UNL1     -0.2851
     45 O         8.056629   -7.985593   -5.530977 O.3        1 UNL1     -0.5056
     46 O         3.528868   -3.772637   -3.524125 O.2        1 UNL1     -0.2836
     47 C         1.9489   -0.150067   -5.69274 C.3        1 UNL1     -0.0566
     48 O         1.881276   1.217766   -3.191433 O.3        1 UNL1     -0.3909
     49 C         0.870962   -0.255595   -0.547463 C.3        1 UNL1     -0.0577
     50 O         -0.675921   -2.406869   -2.992644 O.3        1 UNL1     -0.3910
     51 O         -1.468475   -4.659992   -1.436964 O.3        1 UNL1     -0.3753
     52 C         1.542554   -3.123883   0.19954 C.3        1 UNL1     -0.0564
     53 O         -0.974236   -1.623177   1.657631 O.3        1 UNL1     -0.4608
     54 C         -0.347851   -0.404395   1.645675 C.2        1 UNL1     0.3042
     55 O         0.082553   0.204564   0.667023 O.2        1 UNL1     -0.2512
     56 C         -0.253984   0.236854   3.000925 C.3        1 UNL1     0.0332
     57 C         -3.149464   -2.757555   -1.121695 C.3        1 UNL1     -0.0567
     58 C         3.26445   -6.616015   -1.880238 C.3        1 UNL1     0.0210
     59 C         -1.634105   -3.442301   -2.161989 C.3        1 UNL1     0.0372
     60 C         0.810099   -5.044948   -1.706686 C.2        1 UNL1     -0.0208
     61 C         0.734278   -5.284448   -3.016508 C.2        1 UNL1     0.0882
     62 H         2.754468   -1.676234   -4.425384 H        1 UNL1     0.0365
     63 H         4.53184   -2.101665   -5.336529 H        1 UNL1     0.0576
     64 H         6.119687   0.470915   -5.934316 H        1 UNL1     0.0615
     65 H         6.776831   -2.563085   -6.281974 H        1 UNL1     0.0622
     66 H         -0.321943   -5.649086   -0.07156 H        1 UNL1     0.0645
     67 H         0.077431   -4.055567   1.270605 H        1 UNL1     0.0362
     68 H         -1.906447   -3.186793   0.91644 H        1 UNL1     0.0741
     69 H         -2.373651   -0.992349   -0.495128 H        1 UNL1     0.0359
     70 H         -1.678747   -0.719554   -2.602782 H        1 UNL1     0.0600
     71 H         -0.071365   0.652781   -2.115207 H        1 UNL1     0.0348
     72 H         1.180137   -0.79281   -3.623866 H        1 UNL1     0.0602
     73 H         1.733629   -5.167445   -1.197437 H        1 UNL1     0.0628
     74 H         -0.159104   -5.126372   -3.621586 H        1 UNL1     0.1022
     75 H         10.364329   -0.97365   -7.709218 H        1 UNL1     0.0279
     76 H         9.600529   0.405334   -7.024885 H        1 UNL1     0.0279
     77 H         10.569934   -0.747602   -6.021746 H        1 UNL1     0.0279
     78 H         10.111832   -2.425346   -4.73551 H        1 UNL1     0.1553
     79 H         8.823555   -1.315137   -3.718651 H        1 UNL1     0.1484
     80 H         6.628704   -1.616371   -0.631357 H        1 UNL1     0.0317
     81 H         7.695877   -2.905857   -1.168288 H        1 UNL1     0.0317
     82 H         9.482034   -1.252944   -1.777571 H        1 UNL1     0.0428
     83 H         8.995312   -1.13556   -0.10096 H        1 UNL1     0.0428
     84 H         7.339647   1.734982   -2.769649 H        1 UNL1     0.0428
     85 H         8.447708   0.598353   -3.454775 H        1 UNL1     0.0428
     86 H         6.015962   0.136793   -3.768498 H        1 UNL1     0.0317
     87 H         5.718264   0.03239   -2.094333 H        1 UNL1     0.0317
     88 H         9.556385   1.987883   -1.718999 H        1 UNL1     0.0429
     89 H         8.835307   2.035279   -0.108398 H        1 UNL1     0.0429
     90 H         10.169687   -0.146577   0.374536 H        1 UNL1     0.0308
     91 H         10.715954   -0.015645   -2.41746 H        1 UNL1     0.0233
     92 H         12.244977   0.417869   -1.611453 H        1 UNL1     0.0233
     93 H         11.471084   -1.114683   -1.269436 H        1 UNL1     0.0233
     94 H         11.271038   1.382873   1.523941 H        1 UNL1     0.0233
     95 H         12.417238   1.43453   0.175651 H        1 UNL1     0.0233
     96 H         11.094207   2.620271   0.262818 H        1 UNL1     0.0233
     97 H         4.448205   -9.400781   -4.562215 H        1 UNL1     0.0280
     98 H         5.267303   -9.459114   -6.099376 H        1 UNL1     0.0280
     99 H         6.175993   -9.79878   -4.596499 H        1 UNL1     0.0280
     100 H         8.14666   -7.944194   -6.466821 H        1 UNL1     0.2922
     101 H         1.579254   0.850975   -5.471533 H        1 UNL1     0.0236
     102 H         1.137783   -0.856901   -5.864373 H        1 UNL1     0.0236
     103 H         2.449411   -0.053811   -6.670706 H        1 UNL1     0.0236
     104 H         1.213559   1.561928   -2.566392 H        1 UNL1     0.2098
     105 H         1.253476   -1.190853   -0.146479 H        1 UNL1     0.0234
     106 H         1.560587   0.559485   -0.328402 H        1 UNL1     0.0234
     107 H         0.0   0.0   0.0 H        1 UNL1     0.0234
     108 H         0.252887   -2.68036   -2.865021 H        1 UNL1     0.2098
     109 H         2.111215   -3.41256   1.094527 H        1 UNL1     0.0234
     110 H         2.056157   -3.491569   -0.695313 H        1 UNL1     0.0234
     111 H         1.633651   -2.031792   0.128935 H        1 UNL1     0.0234
     112 H         -0.97944   1.052421   3.077798 H        1 UNL1     0.0342
     113 H         -0.390074   -0.484242   3.805502 H        1 UNL1     0.0342
     114 H         0.750699   0.668654   3.107336 H        1 UNL1     0.0342
     115 H         -3.840624   -2.226197   -1.790384 H        1 UNL1     0.0234
     116 H         -2.934346   -3.727221   -1.57504 H        1 UNL1     0.0234
     117 H         -3.793302   -2.928314   -0.241777 H        1 UNL1     0.0234
     118 H         2.698728   -7.526778   -1.616656 H        1 UNL1     0.0309
     119 H         4.326297   -6.7811   -1.671839 H        1 UNL1     0.0309
     120 H         2.920987   -5.882909   -1.142204 H        1 UNL1     0.0309
     121 H         -2.589789   -3.010113   -1.866628 H        1 UNL1     0.0524
     122 H         -0.849076   -2.704721   -1.925889 H        1 UNL1     0.0524
     123 H         -1.625054   -3.636979   -3.230686 H        1 UNL1     0.0524
@<TRIPOS>BOND
     1     1     2    1
     2     1    42    1
     3     2     3    2
     4     3     4    1
     5     4     5    2
     6     5     7    1
     7     6    75    1
     8     6    76    1
     9     6    77    1
    10     7     9   am
    11     9    10    1
    12    10    11    2
    13    10    43    1
    14    11    14    1
    15    11    15    1
    16    12    13   ar
    17    12    27   ar
    18    12    43    1
    19    13    14    1
    20    13    30   ar
    21    14    17    2
    22    15    16    1
    23    16    17    1
    24    16    18    1
    25    16    22    1
    26    18    19    1
    27    19    20    1
    28    20    21    1
    29    21    22    1
    30    23    24    1
    31    23    88    1
    32    23    89    1
    33    24    25    1
    34    24    26    1
    35    24    90    1
    36    25    91    1
    37    25    92    1
    38    25    93    1
    39    26    94    1
    40    26    95    1
    41    26    96    1
    42    27    28   ar
    43    28    29   ar
    44    29    30   ar
    45    29    31    1
    46    30    33    1
    47    31    32    1
    48    32    33    1
    49    32    35    1
    50    34    97    1
    51    34    98    1
    52    34    99    1
    53    35    61    1
    54    36    37    1
    55    36    60    1
    56    37    38    1
    57    38    39    1
    58    39    40    1
    59    40    41    1
    60    41    42    1
    61    45   100    1
    62    47   101    1
    63    47   102    1
    64    47   103    1
    65    48   104    1
    66    49   105    1
    67    49   106    1
    68    49   107    1
    69    50   108    1
    70    51    59    1
    71    52   109    1
    72    52   110    1
    73    52   111    1
    74    53    54    1
    75    54    55    2
    76    54    56    1
    77    56   112    1
    78    56   113    1
    79    56   114    1
    80    57   115    1
    81    57   116    1
    82    57   117    1
    83    58   118    1
    84    58   119    1
    85    58   120    1
    86    59   121    1
    87    59   122    1
    88    59   123    1
    89    60    61    2
    90     1    47    1
    91     1    62    1
    92     2    63    1
    93     3    64    1
    94     4    65    1
    95     5     6    1
    96     7     8    2
    97     9    78    1
    98    15    79    1
    99    18    80    1
   100    18    81    1
   101    19    82    1
   102    19    83    1
   103    20    23    1
   104    21    84    1
   105    21    85    1
   106    22    86    1
   107    22    87    1
   108    27    45    1
   109    28    34    1
   110    32    58    1
   111    33    46    2
   112    36    51    1
   113    36    66    1
   114    37    52    1
   115    37    67    1
   116    38    53    1
   117    38    68    1
   118    42    48    1
   119    42    72    1
   120    43    44    2
   121    60    73    1
   122    61    74    1
   123    39    69    1
   124    39    57    1
   125    40    70    1
   126    40    50    1
   127    41    71    1
   128    41    49    1
