@<TRIPOS>MOLECULE
*****
 123 128 0 0 0
SMALL
GASTEIGER

@<TRIPOS>ATOM
     1 C         4.801468   2.63726   0.0502 C.3        1 UNL1     0.0009
     2 C         5.936993   3.774327   -0.874298 C.2        1 UNL1     -0.0787
     3 C         7.11281   3.982423   -1.692953 C.2        1 UNL1     -0.0649
     4 C         7.637959   5.421888   -2.413034 C.2        1 UNL1     -0.0542
     5 C         8.450099   5.982742   -3.429376 C.2        1 UNL1     0.0115
     6 C         9.545964   5.66152   -4.482571 C.3        1 UNL1     -0.0348
     7 C         8.188442   7.499883   -3.884139 C.2        1 UNL1     0.2441
     8 O         8.890984   8.433646   -3.522135 O.2        1 UNL1     -0.2702
     9 N         7.261302   7.64964   -4.930148 N.am        1 UNL1     -0.2772
     10 C         5.983996   7.751652   -4.428744 C.2        1 UNL1     0.1049
     11 C         5.378408   6.6134   -4.142621 C.2        1 UNL1     0.0801
     12 C         4.616238   8.954836   -2.714417 C.ar        1 UNL1     0.0753
     13 C         4.144905   7.668064   -2.301292 C.ar        1 UNL1     0.0305
     14 C         4.410905   6.466588   -3.089169 C.2        1 UNL1     0.0924
     15 N         5.720153   5.351195   -4.453388 N.pl3        1 UNL1     -0.3170
     16 C         4.63637   4.492102   -4.056362 C.3        1 UNL1     0.1275
     17 N         3.974292   5.222604   -2.913671 N.2        1 UNL1     -0.2557
     18 C         3.623849   4.484719   -5.19761 C.3        1 UNL1     0.0016
     19 C         4.331355   4.054345   -6.47268 C.3        1 UNL1     0.0026
     20 N         4.899632   2.729156   -6.26783 N.3        1 UNL1     -0.3018
     21 C         5.84032   2.621969   -5.150697 C.3        1 UNL1     0.0026
     22 C         5.107367   3.054574   -3.879663 C.3        1 UNL1     0.0016
     23 C         5.332378   2.10421   -7.501854 C.3        1 UNL1     0.0012
     24 C         4.120057   1.71347   -8.361712 C.3        1 UNL1     -0.0339
     25 C         4.18946   2.356222   -9.756742 C.3        1 UNL1     -0.0615
     26 C         4.008441   0.201223   -8.447917 C.3        1 UNL1     -0.0615
     27 C         4.257459   10.110519   -2.02464 C.ar        1 UNL1     0.1347
     28 C         3.404391   10.109359   -0.935455 C.ar        1 UNL1     0.0342
     29 C         2.991992   8.826399   -0.517001 C.ar        1 UNL1     0.1435
     30 C         3.372427   7.656848   -1.176273 C.ar        1 UNL1     0.0774
     31 O         2.073342   8.665329   0.460314 O.3        1 UNL1     -0.4436
     32 C         1.577711   7.330725   0.275775 C.3        1 UNL1     0.3143
     33 C         2.674403   6.60088   -0.473095 C.2        1 UNL1     0.2504
     34 C         2.778347   11.321849   -0.304553 C.3        1 UNL1     -0.0327
     35 O         1.48521   6.727605   1.572286 O.2        1 UNL1     -0.4528
     36 C         -1.371413   4.237074   1.360045 C.3        1 UNL1     0.0854
     37 C         -1.558956   3.017412   0.377814 C.3        1 UNL1     0.0236
     38 C         -1.805369   1.604139   1.094531 C.3        1 UNL1     0.1131
     39 C         -0.824853   1.122453   2.238575 C.3        1 UNL1     0.0200
     40 C         0.824805   1.301577   2.068335 C.3        1 UNL1     0.0661
     41 C         1.741499   0.831567   0.720607 C.3        1 UNL1     0.0091
     42 C         3.261012   1.565025   0.00052 C.3        1 UNL1     0.0661
     43 C         5.427347   9.02761   -3.955008 C.2        1 UNL1     0.2131
     44 O         5.554413   10.041312   -4.617578 O.2        1 UNL1     -0.2851
     45 O         4.796136   11.317859   -2.464634 O.3        1 UNL1     -0.5056
     46 O         2.928608   5.417143   -0.471907 O.2        1 UNL1     -0.2836
     47 C         5.461208   2.179368   1.378756 C.3        1 UNL1     -0.0566
     48 O         3.967834   0.266893   -0.11936 O.3        1 UNL1     -0.3909
     49 C         0.803885   0.540838   -0.42998 C.3        1 UNL1     -0.0577
     50 O         1.238893   2.577676   2.513111 O.3        1 UNL1     -0.3910
     51 O         -1.268748   3.915605   2.728821 O.3        1 UNL1     -0.3753
     52 C         -0.668878   3.157334   -0.900126 C.3        1 UNL1     -0.0564
     53 O         -2.32338   0.543156   0.168083 O.3        1 UNL1     -0.4608
     54 C         -2.23538   -0.808129   0.378361 C.2        1 UNL1     0.3042
     55 O         -1.447998   -1.595673   -0.144747 O.2        1 UNL1     -0.2512
     56 C         -3.195616   -1.319335   1.414377 C.3        1 UNL1     0.0332
     57 C         -1.478633   1.534048   3.639051 C.3        1 UNL1     -0.0567
     58 C         0.338896   7.447256   -0.642531 C.3        1 UNL1     0.0210
     59 C         -1.689735   4.94729   3.620035 C.3        1 UNL1     0.0372
     60 C         -0.224219   5.130241   1.041676 C.2        1 UNL1     -0.0208
     61 C         0.702628   5.664214   1.838277 C.2        1 UNL1     0.0882
     62 H         4.169297   3.499171   0.295518 H        1 UNL1     0.0365
     63 H         5.498628   4.743825   -0.628572 H        1 UNL1     0.0576
     64 H         7.705878   3.144624   -2.066412 H        1 UNL1     0.0615
     65 H         7.042737   6.193537   -1.917301 H        1 UNL1     0.0622
     66 H         -2.275502   4.846126   1.219599 H        1 UNL1     0.0645
     67 H         -2.541337   3.199739   -0.091488 H        1 UNL1     0.0362
     68 H         -2.759944   1.817774   1.59918 H        1 UNL1     0.0741
     69 H         -0.93555   0.05369   2.364677 H        1 UNL1     0.0359
     70 H         1.17432   0.607194   2.8562 H        1 UNL1     0.0600
     71 H         2.029254   -0.192325   1.03012 H        1 UNL1     0.0348
     72 H         3.201156   1.942784   1.031554 H        1 UNL1     0.0602
     73 H         -0.286191   5.429374   0.024854 H        1 UNL1     0.0628
     74 H         0.869277   5.368908   2.874742 H        1 UNL1     0.1022
     75 H         9.756136   4.565057   -4.507699 H        1 UNL1     0.0279
     76 H         9.299767   5.876686   -5.519952 H        1 UNL1     0.0279
     77 H         10.531491   6.064921   -4.207428 H        1 UNL1     0.0279
     78 H         7.289451   6.829393   -5.53221 H        1 UNL1     0.1553
     79 H         6.362709   5.11251   -5.186249 H        1 UNL1     0.1484
     80 H         2.804365   3.801388   -4.944096 H        1 UNL1     0.0317
     81 H         3.176181   5.475543   -5.329947 H        1 UNL1     0.0317
     82 H         5.106317   4.775476   -6.771537 H        1 UNL1     0.0428
     83 H         3.59166   4.057711   -7.27386 H        1 UNL1     0.0428
     84 H         6.190817   1.601245   -4.968801 H        1 UNL1     0.0428
     85 H         6.761605   3.191367   -5.336002 H        1 UNL1     0.0428
     86 H         5.779251   2.837833   -3.069982 H        1 UNL1     0.0317
     87 H         4.258396   2.386237   -3.690798 H        1 UNL1     0.0317
     88 H         5.936493   2.831733   -8.059572 H        1 UNL1     0.0429
     89 H         5.974736   1.236151   -7.305325 H        1 UNL1     0.0429
     90 H         3.203291   2.053681   -7.865717 H        1 UNL1     0.0308
     91 H         5.185709   2.247268   -10.195739 H        1 UNL1     0.0233
     92 H         3.451626   1.907491   -10.425957 H        1 UNL1     0.0233
     93 H         3.967868   3.430085   -9.73328 H        1 UNL1     0.0233
     94 H         3.426355   -0.084834   -9.330631 H        1 UNL1     0.0233
     95 H         5.00369   -0.242116   -8.542211 H        1 UNL1     0.0233
     96 H         3.519543   -0.213962   -7.562158 H        1 UNL1     0.0233
     97 H         2.053313   11.055521   0.458747 H        1 UNL1     0.0280
     98 H         3.520492   11.95827   0.194892 H        1 UNL1     0.0280
     99 H         2.263921   11.916004   -1.077496 H        1 UNL1     0.0280
     100 H         4.16735   12.008689   -2.57867 H        1 UNL1     0.2922
     101 H         4.732748   1.640755   1.984477 H        1 UNL1     0.0236
     102 H         5.927412   2.995677   1.929462 H        1 UNL1     0.0236
     103 H         6.274657   1.454368   1.208847 H        1 UNL1     0.0236
     104 H         4.441367   0.110178   0.720984 H        1 UNL1     0.2098
     105 H         0.391512   1.425896   -0.907924 H        1 UNL1     0.0234
     106 H         1.20157   -0.142842   -1.179884 H        1 UNL1     0.0234
     107 H         0.0   -0.0   0.0 H        1 UNL1     0.0234
     108 H         0.882525   3.233974   1.88379 H        1 UNL1     0.2098
     109 H         0.400378   3.228611   -0.65656 H        1 UNL1     0.0234
     110 H         -0.826654   2.351364   -1.624875 H        1 UNL1     0.0234
     111 H         -0.90738   4.070555   -1.461455 H        1 UNL1     0.0234
     112 H         -3.059556   -2.396763   1.548476 H        1 UNL1     0.0342
     113 H         -3.09496   -0.79191   2.361759 H        1 UNL1     0.0342
     114 H         -4.217563   -1.152058   1.047215 H        1 UNL1     0.0342
     115 H         -2.514142   1.177404   3.726884 H        1 UNL1     0.0234
     116 H         -0.930406   1.168234   4.509498 H        1 UNL1     0.0234
     117 H         -1.617439   2.622542   3.756756 H        1 UNL1     0.0234
     118 H         -0.604517   7.311435   -0.085277 H        1 UNL1     0.0309
     119 H         0.297967   8.393847   -1.190704 H        1 UNL1     0.0309
     120 H         0.301059   6.656476   -1.399724 H        1 UNL1     0.0309
     121 H         -1.164   4.802803   4.563477 H        1 UNL1     0.0524
     122 H         -1.432612   5.952782   3.247326 H        1 UNL1     0.0524
     123 H         -2.763289   4.893351   3.777091 H        1 UNL1     0.0524
@<TRIPOS>BOND
     1     1     2    1
     2     1    42    1
     3     2     3    2
     4     3     4    1
     5     4     5    2
     6     5     7    1
     7     6    75    1
     8     6    76    1
     9     6    77    1
    10     7     9   am
    11     9    10    1
    12    10    11    2
    13    10    43    1
    14    11    14    1
    15    11    15    1
    16    12    13   ar
    17    12    27   ar
    18    12    43    1
    19    13    14    1
    20    13    30   ar
    21    14    17    2
    22    15    16    1
    23    16    17    1
    24    16    18    1
    25    16    22    1
    26    18    19    1
    27    19    20    1
    28    20    21    1
    29    21    22    1
    30    23    24    1
    31    23    88    1
    32    23    89    1
    33    24    25    1
    34    24    26    1
    35    24    90    1
    36    25    91    1
    37    25    92    1
    38    25    93    1
    39    26    94    1
    40    26    95    1
    41    26    96    1
    42    27    28   ar
    43    28    29   ar
    44    29    30   ar
    45    29    31    1
    46    30    33    1
    47    31    32    1
    48    32    33    1
    49    32    35    1
    50    34    97    1
    51    34    98    1
    52    34    99    1
    53    35    61    1
    54    36    37    1
    55    36    60    1
    56    37    38    1
    57    38    39    1
    58    39    40    1
    59    40    41    1
    60    41    42    1
    61    45   100    1
    62    47   101    1
    63    47   102    1
    64    47   103    1
    65    48   104    1
    66    49   105    1
    67    49   106    1
    68    49   107    1
    69    50   108    1
    70    51    59    1
    71    52   109    1
    72    52   110    1
    73    52   111    1
    74    53    54    1
    75    54    55    2
    76    54    56    1
    77    56   112    1
    78    56   113    1
    79    56   114    1
    80    57   115    1
    81    57   116    1
    82    57   117    1
    83    58   118    1
    84    58   119    1
    85    58   120    1
    86    59   121    1
    87    59   122    1
    88    59   123    1
    89    60    61    2
    90     1    47    1
    91     1    62    1
    92     2    63    1
    93     3    64    1
    94     4    65    1
    95     5     6    1
    96     7     8    2
    97     9    78    1
    98    15    79    1
    99    18    80    1
   100    18    81    1
   101    19    82    1
   102    19    83    1
   103    20    23    1
   104    21    84    1
   105    21    85    1
   106    22    86    1
   107    22    87    1
   108    27    45    1
   109    28    34    1
   110    32    58    1
   111    33    46    2
   112    36    51    1
   113    36    66    1
   114    37    52    1
   115    37    67    1
   116    38    53    1
   117    38    68    1
   118    42    48    1
   119    42    72    1
   120    43    44    2
   121    60    73    1
   122    61    74    1
   123    39    69    1
   124    39    57    1
   125    40    70    1
   126    40    50    1
   127    41    71    1
   128    41    49    1
