@<TRIPOS>MOLECULE
*****
 123 128 0 0 0
SMALL
GASTEIGER

@<TRIPOS>ATOM
     1 C         5.164441   1.755291   0.496767 C.3        1 UNL1     0.0009
     2 C         6.600755   2.563904   -0.35187 C.2        1 UNL1     -0.0787
     3 C         7.883308   2.467887   -1.016614 C.2        1 UNL1     -0.0649
     4 C         8.759736   3.704706   -1.770609 C.2        1 UNL1     -0.0542
     5 C         9.780142   3.999365   -2.708173 C.2        1 UNL1     0.0115
     6 C         10.909878   3.376028   -3.573315 C.3        1 UNL1     -0.0348
     7 C         9.874011   5.483175   -3.313555 C.2        1 UNL1     0.2441
     8 O         10.696494   6.305647   -2.934626 O.2        1 UNL1     -0.2702
     9 N         9.124475   5.689974   -4.4847 N.am        1 UNL1     -0.2772
     10 C         7.840992   6.074733   -4.171725 C.2        1 UNL1     0.1049
     11 C         6.996256   5.101994   -3.88117 C.2        1 UNL1     0.0801
     12 C         6.539315   7.678666   -2.760921 C.ar        1 UNL1     0.0753
     13 C         5.781387   6.54943   -2.31485 C.ar        1 UNL1     0.0305
     14 C         5.900578   5.244341   -2.961059 C.2        1 UNL1     0.0924
     15 N         7.120768   3.773292   -4.041094 N.pl3        1 UNL1     -0.3170
     16 C         5.851447   3.172218   -3.728382 C.3        1 UNL1     0.1275
     17 N         5.212979   4.125917   -2.748311 N.2        1 UNL1     -0.2557
     18 C         4.999557   3.23105   -4.99271 C.3        1 UNL1     0.0016
     19 C         5.756269   2.548755   -6.121182 C.3        1 UNL1     0.0026
     20 N         6.027922   1.17074   -5.736072 N.3        1 UNL1     -0.3018
     21 C         6.790475   1.010484   -4.496234 C.3        1 UNL1     0.0026
     22 C         6.009896   1.699181   -3.375391 C.3        1 UNL1     0.0016
     23 C         6.474423   0.352575   -6.845976 C.3        1 UNL1     0.0012
     24 C         5.320115   0.102261   -7.82917 C.3        1 UNL1     -0.0339
     25 C         5.35547   1.095282   -9.002505 C.3        1 UNL1     -0.0615
     26 C         5.351521   -1.336856   -8.313666 C.3        1 UNL1     -0.0615
     27 C         6.332532   8.945707   -2.220582 C.ar        1 UNL1     0.1347
     28 C         5.372332   9.213308   -1.261179 C.ar        1 UNL1     0.0342
     29 C         4.671898   8.077606   -0.802118 C.ar        1 UNL1     0.1435
     30 C         4.893454   6.796226   -1.30828 C.ar        1 UNL1     0.0774
     31 O         3.63006   8.189193   0.0506 O.3        1 UNL1     -0.4436
     32 C         2.910133   6.955518   -0.093015 C.3        1 UNL1     0.3143
     33 C         3.92518   5.96413   -0.625032 C.2        1 UNL1     0.2504
     34 C         4.923324   10.578509   -0.819911 C.3        1 UNL1     -0.0327
     35 O         2.549003   6.517418   1.222624 O.2        1 UNL1     -0.4528
     36 C         -0.691155   4.581215   0.821897 C.3        1 UNL1     0.0854
     37 C         -0.994059   3.320855   -0.076582 C.3        1 UNL1     0.0236
     38 C         -1.593583   2.058467   0.709986 C.3        1 UNL1     0.1131
     39 C         -0.86818   1.527586   2.01161 C.3        1 UNL1     0.0200
     40 C         0.79317   1.384213   2.054027 C.3        1 UNL1     0.0661
     41 C         1.754506   0.61747   0.88546 C.3        1 UNL1     0.0091
     42 C         3.462068   0.982681   0.323096 C.3        1 UNL1     0.0661
     43 C         7.490541   7.473003   -3.881248 C.2        1 UNL1     0.2131
     44 O         7.889816   8.37211   -4.59883 O.2        1 UNL1     -0.2851
     45 O         7.143799   9.982208   -2.677694 O.3        1 UNL1     -0.5056
     46 O         3.942658   4.760527   -0.495077 O.2        1 UNL1     -0.2836
     47 C         5.560206   1.325342   1.934993 C.3        1 UNL1     -0.0566
     48 O         3.912434   -0.427885   0.404268 O.3        1 UNL1     -0.3909
     49 C         0.921631   0.384635   -0.355347 C.3        1 UNL1     -0.0577
     50 O         1.391437   2.602597   2.448161 O.3        1 UNL1     -0.3910
     51 O         -0.816118   4.390414   2.213087 O.3        1 UNL1     -0.3753
     52 C         0.051539   3.162564   -1.228371 C.3        1 UNL1     -0.0564
     53 O         -2.194082   1.019309   -0.191056 O.3        1 UNL1     -0.4608
     54 C         -2.427037   -0.287986   0.147531 C.2        1 UNL1     0.3042
     55 O         -1.856263   -1.28606   -0.290539 O.2        1 UNL1     -0.2512
     56 C         -3.4677   -0.455746   1.217853 C.3        1 UNL1     0.0332
     57 C         -1.591111   2.194754   3.272733 C.3        1 UNL1     -0.0567
     58 C         1.835491   7.199934   -1.177881 C.3        1 UNL1     0.0210
     59 C         -1.131472   5.568493   2.953726 C.3        1 UNL1     0.0372
     60 C         0.637193   5.212215   0.592787 C.2        1 UNL1     -0.0208
     61 C         1.548851   5.648056   1.463229 C.2        1 UNL1     0.0882
     62 H         4.687149   2.738774   0.584327 H        1 UNL1     0.0365
     63 H         6.333029   3.617278   -0.246056 H        1 UNL1     0.0576
     64 H         8.342418   1.501795   -1.237956 H        1 UNL1     0.0615
     65 H         8.271164   4.619219   -1.423556 H        1 UNL1     0.0622
     66 H         -1.436541   5.326971   0.511586 H        1 UNL1     0.0645
     67 H         -1.859524   3.629496   -0.68836 H        1 UNL1     0.0362
     68 H         -2.541513   2.49385   1.06126 H        1 UNL1     0.0741
     69 H         -1.198523   0.515917   2.206053 H        1 UNL1     0.0359
     70 H         0.90511   0.723427   2.934874 H        1 UNL1     0.0600
     71 H         1.799095   -0.40393   1.311738 H        1 UNL1     0.0348
     72 H         3.354755   1.470075   1.303017 H        1 UNL1     0.0602
     73 H         0.75566   5.410329   -0.443535 H        1 UNL1     0.0628
     74 H         1.530725   5.436637   2.532907 H        1 UNL1     0.1022
     75 H         10.953621   2.270291   -3.423428 H        1 UNL1     0.0279
     76 H         10.798473   3.462003   -4.651863 H        1 UNL1     0.0279
     77 H         11.914403   3.679387   -3.243764 H        1 UNL1     0.0279
     78 H         9.064045   4.820302   -5.01015 H        1 UNL1     0.1553
     79 H         7.787098   3.346602   -4.658243 H        1 UNL1     0.1484
     80 H         4.03877   2.738715   -4.799681 H        1 UNL1     0.0317
     81 H         4.771797   4.267687   -5.263188 H        1 UNL1     0.0317
     82 H         6.686428   3.081454   -6.36806 H        1 UNL1     0.0428
     83 H         5.131759   2.603681   -7.013382 H        1 UNL1     0.0428
     84 H         6.911925   -0.032519   -4.187678 H        1 UNL1     0.0428
     85 H         7.820163   1.379947   -4.598976 H        1 UNL1     0.0428
     86 H         6.525923   1.448881   -2.467066 H        1 UNL1     0.0317
     87 H         5.030983   1.220167   -3.251411 H        1 UNL1     0.0317
     88 H         7.270192   0.895781   -7.372259 H        1 UNL1     0.0429
     89 H         6.907986   -0.592864   -6.495345 H        1 UNL1     0.0429
     90 H         4.366503   0.219717   -7.300927 H        1 UNL1     0.0308
     91 H         6.309133   1.046127   -9.536557 H        1 UNL1     0.0233
     92 H         4.541404   0.894708   -9.702987 H        1 UNL1     0.0233
     93 H         5.227705   2.134001   -8.67452 H        1 UNL1     0.0233
     94 H         4.657877   -1.468671   -9.151114 H        1 UNL1     0.0233
     95 H         6.355645   -1.591193   -8.664392 H        1 UNL1     0.0233
     96 H         5.06887   -2.031991   -7.518139 H        1 UNL1     0.0233
     97 H         4.123171   10.527311   -0.087541 H        1 UNL1     0.0280
     98 H         5.732521   11.145816   -0.34177 H        1 UNL1     0.0280
     99 H         4.558401   11.146529   -1.691278 H        1 UNL1     0.0280
     100 H         6.676045   10.732943   -2.998983 H        1 UNL1     0.2922
     101 H         4.694402   0.901629   2.44343 H        1 UNL1     0.0236
     102 H         6.020561   2.127527   2.510801 H        1 UNL1     0.0236
     103 H         6.308351   0.515112   1.933919 H        1 UNL1     0.0236
     104 H         4.33112   -0.554003   1.278206 H        1 UNL1     0.2098
     105 H         0.708254   1.283571   -0.928229 H        1 UNL1     0.0234
     106 H         1.292586   -0.402455   -1.011708 H        1 UNL1     0.0234
     107 H         0.0   -0.0   0.0 H        1 UNL1     0.0234
     108 H         1.197971   3.259401   1.751779 H        1 UNL1     0.2098
     109 H         1.077652   3.062581   -0.847835 H        1 UNL1     0.0234
     110 H         -0.172597   2.328007   -1.90144 H        1 UNL1     0.0234
     111 H         0.063308   4.04061   -1.887798 H        1 UNL1     0.0234
     112 H         -3.589879   -1.516947   1.455066 H        1 UNL1     0.0342
     113 H         -3.232265   0.119839   2.111785 H        1 UNL1     0.0342
     114 H         -4.425293   -0.085754   0.826335 H        1 UNL1     0.0342
     115 H         -2.660435   1.945037   3.309816 H        1 UNL1     0.0234
     116 H         -1.155051   1.914925   4.233772 H        1 UNL1     0.0234
     117 H         -1.63113   3.296591   3.224815 H        1 UNL1     0.0234
     118 H         0.932823   7.683959   -0.765671 H        1 UNL1     0.0309
     119 H         2.204326   7.790274   -2.022666 H        1 UNL1     0.0309
     120 H         1.449601   6.267786   -1.604841 H        1 UNL1     0.0309
     121 H         -0.311246   6.272838   2.817768 H        1 UNL1     0.0524
     122 H         -2.051626   6.05656   2.591587 H        1 UNL1     0.0524
     123 H         -1.249969   5.329887   4.006874 H        1 UNL1     0.0524
@<TRIPOS>BOND
     1     1     2    1
     2     1    42    1
     3     2     3    2
     4     3     4    1
     5     4     5    2
     6     5     7    1
     7     6    75    1
     8     6    76    1
     9     6    77    1
    10     7     9   am
    11     9    10    1
    12    10    11    2
    13    10    43    1
    14    11    14    1
    15    11    15    1
    16    12    13   ar
    17    12    27   ar
    18    12    43    1
    19    13    14    1
    20    13    30   ar
    21    14    17    2
    22    15    16    1
    23    16    17    1
    24    16    18    1
    25    16    22    1
    26    18    19    1
    27    19    20    1
    28    20    21    1
    29    21    22    1
    30    23    24    1
    31    23    88    1
    32    23    89    1
    33    24    25    1
    34    24    26    1
    35    24    90    1
    36    25    91    1
    37    25    92    1
    38    25    93    1
    39    26    94    1
    40    26    95    1
    41    26    96    1
    42    27    28   ar
    43    28    29   ar
    44    29    30   ar
    45    29    31    1
    46    30    33    1
    47    31    32    1
    48    32    33    1
    49    32    35    1
    50    34    97    1
    51    34    98    1
    52    34    99    1
    53    35    61    1
    54    36    37    1
    55    36    60    1
    56    37    38    1
    57    38    39    1
    58    39    40    1
    59    40    41    1
    60    41    42    1
    61    45   100    1
    62    47   101    1
    63    47   102    1
    64    47   103    1
    65    48   104    1
    66    49   105    1
    67    49   106    1
    68    49   107    1
    69    50   108    1
    70    51    59    1
    71    52   109    1
    72    52   110    1
    73    52   111    1
    74    53    54    1
    75    54    55    2
    76    54    56    1
    77    56   112    1
    78    56   113    1
    79    56   114    1
    80    57   115    1
    81    57   116    1
    82    57   117    1
    83    58   118    1
    84    58   119    1
    85    58   120    1
    86    59   121    1
    87    59   122    1
    88    59   123    1
    89    60    61    2
    90     1    47    1
    91     1    62    1
    92     2    63    1
    93     3    64    1
    94     4    65    1
    95     5     6    1
    96     7     8    2
    97     9    78    1
    98    15    79    1
    99    18    80    1
   100    18    81    1
   101    19    82    1
   102    19    83    1
   103    20    23    1
   104    21    84    1
   105    21    85    1
   106    22    86    1
   107    22    87    1
   108    27    45    1
   109    28    34    1
   110    32    58    1
   111    33    46    2
   112    36    51    1
   113    36    66    1
   114    37    52    1
   115    37    67    1
   116    38    53    1
   117    38    68    1
   118    42    48    1
   119    42    72    1
   120    43    44    2
   121    60    73    1
   122    61    74    1
   123    39    69    1
   124    39    57    1
   125    40    70    1
   126    40    50    1
   127    41    71    1
   128    41    49    1
