@<TRIPOS>MOLECULE
*****
 123 128 0 0 0
SMALL
GASTEIGER

@<TRIPOS>ATOM
     1 C         1.464935   2.770212   4.492122 C.3        1 UNL1     0.0009
     2 C         1.887144   4.428657   5.2051 C.2        1 UNL1     -0.0787
     3 C         2.873446   5.388158   5.655225 C.2        1 UNL1     -0.0649
     4 C         2.617819   6.983032   6.162562 C.2        1 UNL1     -0.0542
     5 C         3.223907   8.246594   6.370275 C.2        1 UNL1     0.0115
     6 C         4.584864   8.993646   6.425335 C.3        1 UNL1     -0.0348
     7 C         2.288978   9.545584   6.494871 C.2        1 UNL1     0.2441
     8 O         2.021489   10.072662   7.565928 O.2        1 UNL1     -0.2702
     9 N         2.011709   10.190694   5.277042 N.am        1 UNL1     -0.2772
     10 C         0.894875   9.644304   4.687581 C.2        1 UNL1     0.1049
     11 C         1.087552   8.542786   3.984904 C.2        1 UNL1     0.0801
     12 C         -1.470172   8.977737   5.156168 C.ar        1 UNL1     0.0753
     13 C         -1.147944   7.713568   4.567394 C.ar        1 UNL1     0.0305
     14 C         0.10427   7.503176   3.844383 C.2        1 UNL1     0.0924
     15 N         2.231431   7.971615   3.570376 N.pl3        1 UNL1     -0.3170
     16 C         1.886925   6.88366   2.694064 C.3        1 UNL1     0.1275
     17 N         0.520624   6.442201   3.158884 N.2        1 UNL1     -0.2557
     18 C         1.690575   7.470952   1.299705 C.3        1 UNL1     0.0016
     19 C         2.953806   8.219241   0.904861 C.3        1 UNL1     0.0026
     20 N         4.07483   7.289855   0.928857 N.3        1 UNL1     -0.3018
     21 C         4.305159   6.626603   2.21393 C.3        1 UNL1     0.0026
     22 C         3.025331   5.877413   2.588962 C.3        1 UNL1     0.0016
     23 C         5.260749   7.820009   0.286069 C.3        1 UNL1     0.0012
     24 C         5.055837   7.907242   -1.234509 C.3        1 UNL1     -0.0339
     25 C         4.619283   9.317835   -1.663118 C.3        1 UNL1     -0.0615
     26 C         6.318533   7.469454   -1.956119 C.3        1 UNL1     -0.0615
     27 C         -2.714829   9.206658   5.738013 C.ar        1 UNL1     0.1347
     28 C         -3.728081   8.264826   5.756009 C.ar        1 UNL1     0.0342
     29 C         -3.371374   7.011683   5.2142 C.ar        1 UNL1     0.1435
     30 C         -2.116256   6.756364   4.660385 C.ar        1 UNL1     0.0774
     31 O         -4.282003   6.025914   5.059208 O.3        1 UNL1     -0.4436
     32 C         -3.699793   5.143841   4.087688 C.3        1 UNL1     0.3143
     33 C         -2.208079   5.398947   4.16465 C.2        1 UNL1     0.2504
     34 C         -5.16114   8.5186   6.132888 C.3        1 UNL1     -0.0327
     35 O         -3.917917   3.803354   4.544601 O.2        1 UNL1     -0.4528
     36 C         -4.166081   1.665574   1.417877 C.3        1 UNL1     0.0854
     37 C         -3.12302   1.485608   0.248621 C.3        1 UNL1     0.0236
     38 C         -2.697661   -0.031493   -0.050069 C.3        1 UNL1     0.1131
     39 C         -2.217806   -0.960576   1.136865 C.3        1 UNL1     0.0200
     40 C         -1.166429   -0.378298   2.293584 C.3        1 UNL1     0.0661
     41 C         0.290154   0.43721   1.992048 C.3        1 UNL1     0.0091
     42 C         1.13507   1.756418   2.946622 C.3        1 UNL1     0.0661
     43 C         -0.467154   10.06602   5.047284 C.2        1 UNL1     0.2131
     44 O         -0.744016   11.24821   5.13954 O.2        1 UNL1     -0.2851
     45 O         -2.931681   10.449484   6.329448 O.3        1 UNL1     -0.5056
     46 O         -1.299781   4.644094   3.898105 O.2        1 UNL1     -0.2836
     47 C         1.641322   1.661523   5.564353 C.3        1 UNL1     -0.0566
     48 O         2.464742   1.102117   2.892065 O.3        1 UNL1     -0.3909
     49 C         0.324501   0.853477   0.53842 C.3        1 UNL1     -0.0577
     50 O         -1.873278   0.264327   3.335275 O.3        1 UNL1     -0.3910
     51 O         -4.460773   0.506543   2.164359 O.3        1 UNL1     -0.3753
     52 C         -2.094278   2.662178   0.200431 C.3        1 UNL1     -0.0564
     53 O         -1.995827   -0.210767   -1.364457 O.3        1 UNL1     -0.4608
     54 C         -1.206231   -1.277711   -1.705189 C.2        1 UNL1     0.3042
     55 O         0.011148   -1.279085   -1.883585 O.2        1 UNL1     -0.2512
     56 C         -1.95769   -2.57474   -1.80388 C.3        1 UNL1     0.0332
     57 C         -3.48534   -1.798629   1.636064 C.3        1 UNL1     -0.0567
     58 C         -4.21544   5.612267   2.70703 C.3        1 UNL1     0.0210
     59 C         -5.752077   0.496676   2.771239 C.3        1 UNL1     0.0372
     60 C         -3.833259   2.734605   2.39847 C.2        1 UNL1     -0.0208
     61 C         -3.881066   2.730425   3.731303 C.2        1 UNL1     0.0882
     62 H         0.405886   3.054632   4.507346 H        1 UNL1     0.0365
     63 H         0.889083   4.826117   5.400984 H        1 UNL1     0.0576
     64 H         3.944279   5.202076   5.546614 H        1 UNL1     0.0615
     65 H         1.536565   7.037732   6.315469 H        1 UNL1     0.0622
     66 H         -5.088309   1.992454   0.917187 H        1 UNL1     0.0645
     67 H         -3.694807   1.736515   -0.66169 H        1 UNL1     0.0362
     68 H         -3.671756   -0.437459   -0.362885 H        1 UNL1     0.0741
     69 H         -1.674697   -1.800172   0.723925 H        1 UNL1     0.0359
     70 H         -0.825032   -1.33249   2.738585 H        1 UNL1     0.0600
     71 H         0.993723   -0.418324   1.989492 H        1 UNL1     0.0348
     72 H         0.434479   1.277405   3.645932 H        1 UNL1     0.0602
     73 H         -3.642595   3.639666   1.877165 H        1 UNL1     0.0628
     74 H         -4.012841   1.835796   4.34082 H        1 UNL1     0.1022
     75 H         5.425066   8.295193   6.194558 H        1 UNL1     0.0279
     76 H         4.732671   9.786959   5.696035 H        1 UNL1     0.0279
     77 H         4.848858   9.322169   7.441248 H        1 UNL1     0.0279
     78 H         2.791333   10.060437   4.635718 H        1 UNL1     0.1553
     79 H         3.108404   8.456335   3.516546 H        1 UNL1     0.1484
     80 H         1.470417   6.658111   0.597149 H        1 UNL1     0.0317
     81 H         0.82873   8.146511   1.277463 H        1 UNL1     0.0317
     82 H         3.139494   9.080483   1.563415 H        1 UNL1     0.0428
     83 H         2.791475   8.631391   -0.091548 H        1 UNL1     0.0428
     84 H         5.100892   5.875802   2.183634 H        1 UNL1     0.0428
     85 H         4.635944   7.334942   2.98604 H        1 UNL1     0.0428
     86 H         3.272665   5.299909   3.460342 H        1 UNL1     0.0317
     87 H         2.802881   5.114097   1.833342 H        1 UNL1     0.0317
     88 H         5.435834   8.832105   0.673756 H        1 UNL1     0.0429
     89 H         6.148403   7.223222   0.53242 H        1 UNL1     0.0429
     90 H         4.277725   7.194964   -1.533531 H        1 UNL1     0.0308
     91 H         5.346032   10.072258   -1.34723 H        1 UNL1     0.0233
     92 H         4.495299   9.371103   -2.747277 H        1 UNL1     0.0233
     93 H         3.653496   9.605638   -1.230384 H        1 UNL1     0.0233
     94 H         6.246752   7.709656   -3.022415 H        1 UNL1     0.0233
     95 H         7.184335   7.999022   -1.548802 H        1 UNL1     0.0233
     96 H         6.483302   6.393103   -1.854688 H        1 UNL1     0.0233
     97 H         -5.775066   7.629723   6.022328 H        1 UNL1     0.0280
     98 H         -5.264913   8.827006   7.181398 H        1 UNL1     0.0280
     99 H         -5.578058   9.308995   5.48748 H        1 UNL1     0.0280
     100 H         -3.695822   10.902746   6.019184 H        1 UNL1     0.2922
     101 H         1.350056   0.697518   5.147802 H        1 UNL1     0.0236
     102 H         1.11959   1.879063   6.495726 H        1 UNL1     0.0236
     103 H         2.696752   1.532564   5.856981 H        1 UNL1     0.0236
     104 H         2.569238   0.57777   3.710057 H        1 UNL1     0.2098
     105 H         -0.341723   1.676111   0.290972 H        1 UNL1     0.0234
     106 H         1.322107   1.043087   0.142495 H        1 UNL1     0.0234
     107 H         0.0   0.0   -0.0 H        1 UNL1     0.0234
     108 H         -2.298203   1.055849   2.952261 H        1 UNL1     0.2098
     109 H         -1.530545   2.760522   1.138645 H        1 UNL1     0.0234
     110 H         -1.396267   2.589407   -0.640537 H        1 UNL1     0.0234
     111 H         -2.592272   3.629315   0.05012 H        1 UNL1     0.0234
     112 H         -1.268365   -3.385863   -2.057367 H        1 UNL1     0.0342
     113 H         -2.507394   -2.800036   -0.89124 H        1 UNL1     0.0342
     114 H         -2.688539   -2.486626   -2.619514 H        1 UNL1     0.0342
     115 H         -3.914134   -2.409725   0.829909 H        1 UNL1     0.0234
     116 H         -3.274975   -2.463794   2.475916 H        1 UNL1     0.0234
     117 H         -4.349545   -1.168731   1.908679 H        1 UNL1     0.0234
     118 H         -5.217565   5.208345   2.479876 H        1 UNL1     0.0309
     119 H         -4.236479   6.701763   2.603309 H        1 UNL1     0.0309
     120 H         -3.600064   5.24079   1.880336 H        1 UNL1     0.0309
     121 H         -5.791982   1.327647   3.47498 H        1 UNL1     0.0524
     122 H         -6.560841   0.644851   2.036404 H        1 UNL1     0.0524
     123 H         -5.91586   -0.442997   3.291127 H        1 UNL1     0.0524
@<TRIPOS>BOND
     1     1     2    1
     2     1    42    1
     3     2     3    2
     4     3     4    1
     5     4     5    2
     6     5     7    1
     7     6    75    1
     8     6    76    1
     9     6    77    1
    10     7     9   am
    11     9    10    1
    12    10    11    2
    13    10    43    1
    14    11    14    1
    15    11    15    1
    16    12    13   ar
    17    12    27   ar
    18    12    43    1
    19    13    14    1
    20    13    30   ar
    21    14    17    2
    22    15    16    1
    23    16    17    1
    24    16    18    1
    25    16    22    1
    26    18    19    1
    27    19    20    1
    28    20    21    1
    29    21    22    1
    30    23    24    1
    31    23    88    1
    32    23    89    1
    33    24    25    1
    34    24    26    1
    35    24    90    1
    36    25    91    1
    37    25    92    1
    38    25    93    1
    39    26    94    1
    40    26    95    1
    41    26    96    1
    42    27    28   ar
    43    28    29   ar
    44    29    30   ar
    45    29    31    1
    46    30    33    1
    47    31    32    1
    48    32    33    1
    49    32    35    1
    50    34    97    1
    51    34    98    1
    52    34    99    1
    53    35    61    1
    54    36    37    1
    55    36    60    1
    56    37    38    1
    57    38    39    1
    58    39    40    1
    59    40    41    1
    60    41    42    1
    61    45   100    1
    62    47   101    1
    63    47   102    1
    64    47   103    1
    65    48   104    1
    66    49   105    1
    67    49   106    1
    68    49   107    1
    69    50   108    1
    70    51    59    1
    71    52   109    1
    72    52   110    1
    73    52   111    1
    74    53    54    1
    75    54    55    2
    76    54    56    1
    77    56   112    1
    78    56   113    1
    79    56   114    1
    80    57   115    1
    81    57   116    1
    82    57   117    1
    83    58   118    1
    84    58   119    1
    85    58   120    1
    86    59   121    1
    87    59   122    1
    88    59   123    1
    89    60    61    2
    90     1    47    1
    91     1    62    1
    92     2    63    1
    93     3    64    1
    94     4    65    1
    95     5     6    1
    96     7     8    2
    97     9    78    1
    98    15    79    1
    99    18    80    1
   100    18    81    1
   101    19    82    1
   102    19    83    1
   103    20    23    1
   104    21    84    1
   105    21    85    1
   106    22    86    1
   107    22    87    1
   108    27    45    1
   109    28    34    1
   110    32    58    1
   111    33    46    2
   112    36    51    1
   113    36    66    1
   114    37    52    1
   115    37    67    1
   116    38    53    1
   117    38    68    1
   118    42    48    1
   119    42    72    1
   120    43    44    2
   121    60    73    1
   122    61    74    1
   123    39    69    1
   124    39    57    1
   125    40    70    1
   126    40    50    1
   127    41    71    1
   128    41    49    1
