@<TRIPOS>MOLECULE
*****
 123 128 0 0 0
SMALL
GASTEIGER

@<TRIPOS>ATOM
     1 C         5.163893   1.75899   0.490588 C.3        1 UNL1     0.0009
     2 C         6.597726   2.570684   -0.359301 C.2        1 UNL1     -0.0787
     3 C         7.879357   2.477303   -1.026195 C.2        1 UNL1     -0.0649
     4 C         8.752856   3.716299   -1.780016 C.2        1 UNL1     -0.0542
     5 C         9.771362   4.013569   -2.718821 C.2        1 UNL1     0.0115
     6 C         10.900597   3.392907   -3.586536 C.3        1 UNL1     -0.0348
     7 C         9.862192   5.49827   -3.32248 C.2        1 UNL1     0.2441
     8 O         10.684122   6.321417   -2.943818 O.2        1 UNL1     -0.2702
     9 N         9.110513   5.70549   -4.492176 N.am        1 UNL1     -0.2772
     10 C         7.826989   6.088053   -4.176686 C.2        1 UNL1     0.1049
     11 C         6.984078   5.113765   -3.886021 C.2        1 UNL1     0.0801
     12 C         6.525303   7.688382   -2.761803 C.ar        1 UNL1     0.0753
     13 C         5.769666   6.557524   -2.315956 C.ar        1 UNL1     0.0305
     14 C         5.889661   5.253417   -2.963998 C.2        1 UNL1     0.0924
     15 N         7.110199   3.785442   -4.047817 N.pl3        1 UNL1     -0.3170
     16 C         5.842218   3.182195   -3.733854 C.3        1 UNL1     0.1275
     17 N         5.203968   4.133763   -2.751572 N.2        1 UNL1     -0.2557
     18 C         4.988245   3.241422   -4.996757 C.3        1 UNL1     0.0016
     19 C         5.744123   2.561609   -6.127284 C.3        1 UNL1     0.0026
     20 N         6.018316   1.183494   -5.744342 N.3        1 UNL1     -0.3018
     21 C         6.783056   1.022748   -4.505915 C.3        1 UNL1     0.0026
     22 C         6.00329   1.708938   -3.382971 C.3        1 UNL1     0.0016
     23 C         6.464204   0.367353   -6.855981 C.3        1 UNL1     0.0012
     24 C         5.308692   0.116657   -7.837662 C.3        1 UNL1     -0.0339
     25 C         5.340796   1.111203   -9.009799 C.3        1 UNL1     -0.0615
     26 C         5.341346   -1.321804   -8.324021 C.3        1 UNL1     -0.0615
     27 C         6.317602   8.954451   -2.219541 C.ar        1 UNL1     0.1347
     28 C         5.358549   9.219497   -1.258282 C.ar        1 UNL1     0.0342
     29 C         4.660435   8.082237   -0.799546 C.ar        1 UNL1     0.1435
     30 C         4.882984   6.801807   -1.307673 C.ar        1 UNL1     0.0774
     31 O         3.619794   8.191289   0.05496 O.3        1 UNL1     -0.4436
     32 C         2.90137   6.956787   -0.08907 C.3        1 UNL1     0.3143
     33 C         3.91696   5.967494   -0.623943 C.2        1 UNL1     0.2504
     34 C         4.908327   10.583511   -0.814584 C.3        1 UNL1     -0.0327
     35 O         2.542939   6.516525   1.226585 O.2        1 UNL1     -0.4528
     36 C         -0.695134   4.576283   0.828546 C.3        1 UNL1     0.0854
     37 C         -0.997696   3.316631   -0.07104 C.3        1 UNL1     0.0236
     38 C         -1.594203   2.052414   0.714884 C.3        1 UNL1     0.1131
     39 C         -0.865995   1.520914   2.014688 C.3        1 UNL1     0.0200
     40 C         0.795619   1.379819   2.054295 C.3        1 UNL1     0.0661
     41 C         1.756176   0.615896   0.883243 C.3        1 UNL1     0.0091
     42 C         3.462331   0.984211   0.318637 C.3        1 UNL1     0.0661
     43 C         7.47504   7.485464   -3.883892 C.2        1 UNL1     0.2131
     44 O         7.871917   8.386032   -4.600971 O.2        1 UNL1     -0.2851
     45 O         7.12669   9.992664   -2.676629 O.3        1 UNL1     -0.5056
     46 O         3.93633   4.763754   -0.495532 O.2        1 UNL1     -0.2836
     47 C         5.562539   1.327787   1.927643 C.3        1 UNL1     -0.0566
     48 O         3.914801   -0.425823   0.397319 O.3        1 UNL1     -0.3909
     49 C         0.921663   0.383455   -0.356537 C.3        1 UNL1     -0.0577
     50 O         1.392802   2.598544   2.449017 O.3        1 UNL1     -0.3910
     51 O         -0.817625   4.383556   2.219691 O.3        1 UNL1     -0.3753
     52 C         0.046297   3.161257   -1.224681 C.3        1 UNL1     -0.0564
     53 O         -2.194672   1.013549   -0.186516 O.3        1 UNL1     -0.4608
     54 C         -2.425258   -0.294497   0.150791 C.2        1 UNL1     0.3042
     55 O         -1.852761   -1.291114   -0.288344 O.2        1 UNL1     -0.2512
     56 C         -3.465492   -0.465179   1.221069 C.3        1 UNL1     0.0332
     57 C         -1.587861   2.18548   3.277794 C.3        1 UNL1     -0.0567
     58 C         1.824668   7.201059   -1.171925 C.3        1 UNL1     0.0210
     59 C         -1.133456   5.560259   2.962312 C.3        1 UNL1     0.0372
     60 C         0.631964   5.209434   0.59813 C.2        1 UNL1     -0.0208
     61 C         1.544388   5.645458   1.467677 C.2        1 UNL1     0.0882
     62 H         4.685363   2.741691   0.580142 H        1 UNL1     0.0365
     63 H         6.328693   3.623548   -0.251736 H        1 UNL1     0.0576
     64 H         8.33947   1.512136   -1.249481 H        1 UNL1     0.0615
     65 H         8.263554   4.629688   -1.431038 H        1 UNL1     0.0622
     66 H         -1.442056   5.321383   0.520356 H        1 UNL1     0.0645
     67 H         -1.86456   3.624827   -0.681058 H        1 UNL1     0.0362
     68 H         -2.542184   2.486024   1.068207 H        1 UNL1     0.0741
     69 H         -1.194611   0.508539   2.208378 H        1 UNL1     0.0359
     70 H         0.90988   0.718083   2.93413 H        1 UNL1     0.0600
     71 H         1.802871   -0.405975   1.308162 H        1 UNL1     0.0348
     72 H         3.355888   1.47022   1.299341 H        1 UNL1     0.0602
     73 H         0.748511   5.409018   -0.438128 H        1 UNL1     0.0628
     74 H         1.528253   5.432668   2.537115 H        1 UNL1     0.1022
     75 H         10.929587   2.284059   -3.457503 H        1 UNL1     0.0279
     76 H         10.799271   3.500784   -4.664109 H        1 UNL1     0.0279
     77 H         11.90596   3.67749   -3.243084 H        1 UNL1     0.0279
     78 H         9.050468   4.836397   -5.018626 H        1 UNL1     0.1553
     79 H         7.776147   3.360464   -4.666557 H        1 UNL1     0.1484
     80 H         4.028455   2.747496   -4.802828 H        1 UNL1     0.0317
     81 H         4.758604   4.278078   -5.265567 H        1 UNL1     0.0317
     82 H         6.673142   3.095924   -6.374962 H        1 UNL1     0.0428
     83 H         5.118123   2.616782   -7.018425 H        1 UNL1     0.0428
     84 H         6.906456   -0.020471   -4.198867 H        1 UNL1     0.0428
     85 H         7.812062   1.393785   -4.609821 H        1 UNL1     0.0428
     86 H         6.521105   1.45822   -2.47578 H        1 UNL1     0.0317
     87 H         5.025247   1.228395   -3.258046 H        1 UNL1     0.0317
     88 H         7.258376   0.912337   -7.382837 H        1 UNL1     0.0429
     89 H         6.899647   -0.577917   -6.507229 H        1 UNL1     0.0429
     90 H         4.355754   0.232111   -7.307763 H        1 UNL1     0.0308
     91 H         6.29368   1.064058   -9.545421 H        1 UNL1     0.0233
     92 H         4.525903   0.910368   -9.709244 H        1 UNL1     0.0233
     93 H         5.212096   2.149328   -8.680303 H        1 UNL1     0.0233
     94 H         4.646561   -1.453538   -9.160535 H        1 UNL1     0.0233
     95 H         6.345269   -1.57429   -8.676656 H        1 UNL1     0.0233
     96 H         5.06093   -2.018335   -7.528924 H        1 UNL1     0.0233
     97 H         4.109409   10.530268   -0.081014 H        1 UNL1     0.0280
     98 H         5.717486   11.15135   -0.33701 H        1 UNL1     0.0280
     99 H         4.541229   11.152114   -1.684656 H        1 UNL1     0.0280
     100 H         6.657376   10.743145   -2.996231 H        1 UNL1     0.2922
     101 H         4.698136   0.902221   2.436914 H        1 UNL1     0.0236
     102 H         6.022681   2.129892   2.503732 H        1 UNL1     0.0236
     103 H         6.311815   0.51861   1.924364 H        1 UNL1     0.0236
     104 H         4.329989   -0.553953   1.272632 H        1 UNL1     0.2098
     105 H         0.70865   1.282381   -0.929571 H        1 UNL1     0.0234
     106 H         1.291012   -0.40433   -1.01297 H        1 UNL1     0.0234
     107 H         0.0   -0.0   0.0 H        1 UNL1     0.0234
     108 H         1.206946   3.252987   1.748352 H        1 UNL1     0.2098
     109 H         1.073151   3.062235   -0.845896 H        1 UNL1     0.0234
     110 H         -0.177735   2.327234   -1.898445 H        1 UNL1     0.0234
     111 H         0.055792   4.040147   -1.883018 H        1 UNL1     0.0234
     112 H         -3.585753   -1.526833   1.457235 H        1 UNL1     0.0342
     113 H         -3.230974   0.10993   2.115549 H        1 UNL1     0.0342
     114 H         -4.42379   -0.096502   0.830035 H        1 UNL1     0.0342
     115 H         -2.656775   1.934217   3.316254 H        1 UNL1     0.0234
     116 H         -1.149887   1.905054   4.237788 H        1 UNL1     0.0234
     117 H         -1.6295   3.287319   3.231328 H        1 UNL1     0.0234
     118 H         0.921977   7.683298   -0.757678 H        1 UNL1     0.0309
     119 H         2.191337   7.792978   -2.016548 H        1 UNL1     0.0309
     120 H         1.439408   6.268909   -1.599449 H        1 UNL1     0.0309
     121 H         -0.30293   6.256074   2.846446 H        1 UNL1     0.0524
     122 H         -2.041106   6.061172   2.586419 H        1 UNL1     0.0524
     123 H         -1.274318   5.316096   4.011425 H        1 UNL1     0.0524
@<TRIPOS>BOND
     1     1     2    1
     2     1    42    1
     3     2     3    2
     4     3     4    1
     5     4     5    2
     6     5     7    1
     7     6    75    1
     8     6    76    1
     9     6    77    1
    10     7     9   am
    11     9    10    1
    12    10    11    2
    13    10    43    1
    14    11    14    1
    15    11    15    1
    16    12    13   ar
    17    12    27   ar
    18    12    43    1
    19    13    14    1
    20    13    30   ar
    21    14    17    2
    22    15    16    1
    23    16    17    1
    24    16    18    1
    25    16    22    1
    26    18    19    1
    27    19    20    1
    28    20    21    1
    29    21    22    1
    30    23    24    1
    31    23    88    1
    32    23    89    1
    33    24    25    1
    34    24    26    1
    35    24    90    1
    36    25    91    1
    37    25    92    1
    38    25    93    1
    39    26    94    1
    40    26    95    1
    41    26    96    1
    42    27    28   ar
    43    28    29   ar
    44    29    30   ar
    45    29    31    1
    46    30    33    1
    47    31    32    1
    48    32    33    1
    49    32    35    1
    50    34    97    1
    51    34    98    1
    52    34    99    1
    53    35    61    1
    54    36    37    1
    55    36    60    1
    56    37    38    1
    57    38    39    1
    58    39    40    1
    59    40    41    1
    60    41    42    1
    61    45   100    1
    62    47   101    1
    63    47   102    1
    64    47   103    1
    65    48   104    1
    66    49   105    1
    67    49   106    1
    68    49   107    1
    69    50   108    1
    70    51    59    1
    71    52   109    1
    72    52   110    1
    73    52   111    1
    74    53    54    1
    75    54    55    2
    76    54    56    1
    77    56   112    1
    78    56   113    1
    79    56   114    1
    80    57   115    1
    81    57   116    1
    82    57   117    1
    83    58   118    1
    84    58   119    1
    85    58   120    1
    86    59   121    1
    87    59   122    1
    88    59   123    1
    89    60    61    2
    90     1    47    1
    91     1    62    1
    92     2    63    1
    93     3    64    1
    94     4    65    1
    95     5     6    1
    96     7     8    2
    97     9    78    1
    98    15    79    1
    99    18    80    1
   100    18    81    1
   101    19    82    1
   102    19    83    1
   103    20    23    1
   104    21    84    1
   105    21    85    1
   106    22    86    1
   107    22    87    1
   108    27    45    1
   109    28    34    1
   110    32    58    1
   111    33    46    2
   112    36    51    1
   113    36    66    1
   114    37    52    1
   115    37    67    1
   116    38    53    1
   117    38    68    1
   118    42    48    1
   119    42    72    1
   120    43    44    2
   121    60    73    1
   122    61    74    1
   123    39    69    1
   124    39    57    1
   125    40    70    1
   126    40    50    1
   127    41    71    1
   128    41    49    1
