@<TRIPOS>MOLECULE
*****
 123 128 0 0 0
SMALL
GASTEIGER

@<TRIPOS>ATOM
     1 C         1.429216   1.146229   3.699839 C.3        1 UNL1     0.0009
     2 C         0.740778   2.436321   4.839469 C.2        1 UNL1     -0.0787
     3 C         0.72604   3.797155   5.33339 C.2        1 UNL1     -0.0649
     4 C         -0.344548   4.487964   6.448281 C.2        1 UNL1     -0.0542
     5 C         -0.882868   5.701688   6.942412 C.2        1 UNL1     0.0115
     6 C         -0.737374   7.247912   6.905735 C.3        1 UNL1     -0.0348
     7 C         -2.246192   5.659183   7.788892 C.2        1 UNL1     0.2441
     8 O         -2.275166   5.748197   9.00863 O.2        1 UNL1     -0.2702
     9 N         -3.419043   5.775639   7.022725 N.am        1 UNL1     -0.2772
     10 C         -3.837789   4.536889   6.594387 C.2        1 UNL1     0.1049
     11 C         -3.252311   4.068384   5.507216 C.2        1 UNL1     0.0801
     12 C         -4.297678   2.212126   7.395206 C.ar        1 UNL1     0.0753
     13 C         -3.475816   1.761013   6.313703 C.ar        1 UNL1     0.0305
     14 C         -3.034651   2.669227   5.257497 C.2        1 UNL1     0.0924
     15 N         -2.456474   4.688535   4.619194 N.pl3        1 UNL1     -0.3170
     16 C         -2.225963   3.78086   3.526836 C.3        1 UNL1     0.1275
     17 N         -2.360807   2.408782   4.140792 N.2        1 UNL1     -0.2557
     18 C         -3.397311   3.929433   2.56062 C.3        1 UNL1     0.0016
     19 C         -3.50773   5.389453   2.151058 C.3        1 UNL1     0.0026
     20 N         -2.257154   5.795452   1.524756 N.3        1 UNL1     -0.3018
     21 C         -1.063174   5.630875   2.356438 C.3        1 UNL1     0.0026
     22 C         -0.969387   4.156351   2.752516 C.3        1 UNL1     0.0016
     23 C         -2.358623   7.065696   0.834229 C.3        1 UNL1     0.0012
     24 C         -3.222987   6.924715   -0.428607 C.3        1 UNL1     -0.0339
     25 C         -4.423868   5.995364   -0.187262 C.3        1 UNL1     -0.0615
     26 C         -3.664862   8.294759   -0.912869 C.3        1 UNL1     -0.0615
     27 C         -4.813668   1.318672   8.330948 C.ar        1 UNL1     0.1347
     28 C         -4.610145   -0.048252   8.26656 C.ar        1 UNL1     0.0342
     29 C         -3.757821   -0.464017   7.221645 C.ar        1 UNL1     0.1435
     30 C         -3.204295   0.423646   6.298128 C.ar        1 UNL1     0.0774
     31 O         -3.550703   -1.773026   6.959723 O.3        1 UNL1     -0.4436
     32 C         -3.058529   -1.799636   5.611417 C.3        1 UNL1     0.3143
     33 C         -2.475202   -0.421152   5.375357 C.2        1 UNL1     0.2504
     34 C         -5.331678   -1.086385   9.080054 C.3        1 UNL1     -0.0327
     35 O         -1.966471   -2.726632   5.574804 O.2        1 UNL1     -0.4528
     36 C         -1.947493   -4.174278   2.065951 C.3        1 UNL1     0.0854
     37 C         -1.837113   -3.428022   0.680872 C.3        1 UNL1     0.0236
     38 C         -0.64428   -3.931928   -0.265157 C.3        1 UNL1     0.1131
     39 C         0.82404   -4.04063   0.313195 C.3        1 UNL1     0.0200
     40 C         1.444673   -2.828269   1.276229 C.3        1 UNL1     0.0661
     41 C         1.422943   -1.169278   0.922833 C.3        1 UNL1     0.0091
     42 C         1.304658   0.283321   2.037 C.3        1 UNL1     0.0661
     43 C         -4.656153   3.651592   7.436339 C.2        1 UNL1     0.2131
     44 O         -5.623278   4.087542   8.034129 O.2        1 UNL1     -0.2851
     45 O         -5.566535   1.845023   9.378604 O.3        1 UNL1     -0.5056
     46 O         -1.592018   -0.097062   4.613251 O.2        1 UNL1     -0.2836
     47 C         2.827639   0.684058   4.190544 C.3        1 UNL1     -0.0566
     48 O         2.419015   1.015352   1.387805 O.3        1 UNL1     -0.3909
     49 C         0.464505   -0.926655   -0.22173 C.3        1 UNL1     -0.0577
     50 O         1.100021   -3.038287   2.630788 O.3        1 UNL1     -0.3910
     51 O         -0.89413   -5.058852   2.374797 O.3        1 UNL1     -0.3753
     52 C         -2.220183   -1.916885   0.801996 C.3        1 UNL1     -0.0564
     53 O         -0.769539   -3.469556   -1.687426 O.3        1 UNL1     -0.4608
     54 C         0.173714   -3.643738   -2.666131 C.2        1 UNL1     0.3042
     55 O         0.959555   -2.804307   -3.103907 O.2        1 UNL1     -0.2512
     56 C         0.247734   -5.051061   -3.186397 C.3        1 UNL1     0.0332
     57 C         1.04657   -5.55321   0.783044 C.3        1 UNL1     -0.0567
     58 C         -4.293421   -1.981799   4.698516 C.3        1 UNL1     0.0210
     59 C         -1.245271   -6.124498   3.256253 C.3        1 UNL1     0.0372
     60 C         -2.121874   -3.285495   3.246975 C.2        1 UNL1     -0.0208
     61 C         -1.529857   -3.309496   4.441832 C.2        1 UNL1     0.0882
     62 H         0.703463   0.429896   4.103399 H        1 UNL1     0.0365
     63 H         0.044693   1.836345   5.429353 H        1 UNL1     0.0576
     64 H         1.342084   4.5772   4.88048 H        1 UNL1     0.0615
     65 H         -0.848374   3.626125   6.894234 H        1 UNL1     0.0622
     66 H         -2.874159   -4.760496   1.99056 H        1 UNL1     0.0645
     67 H         -2.722954   -3.772452   0.119434 H        1 UNL1     0.0362
     68 H         -0.969114   -4.970017   -0.433607 H        1 UNL1     0.0741
     69 H         1.522256   -4.068238   -0.512722 H        1 UNL1     0.0359
     70 H         2.522218   -3.075591   1.223434 H        1 UNL1     0.0600
     71 H         2.400731   -1.067563   0.412402 H        1 UNL1     0.0348
     72 H         1.633903   -0.555899   2.66678 H        1 UNL1     0.0602
     73 H         -2.935585   -2.626568   3.071083 H        1 UNL1     0.0628
     74 H         -0.654242   -3.912658   4.684177 H        1 UNL1     0.1022
     75 H         0.329277   7.544849   7.051058 H        1 UNL1     0.0279
     76 H         -0.990986   7.736942   5.967865 H        1 UNL1     0.0279
     77 H         -1.218385   7.740778   7.763296 H        1 UNL1     0.0279
     78 H         -3.232776   6.338934   6.195633 H        1 UNL1     0.1553
     79 H         -2.406226   5.685564   4.517496 H        1 UNL1     0.1484
     80 H         -3.228698   3.281447   1.69203 H        1 UNL1     0.0317
     81 H         -4.331736   3.595378   3.0242 H        1 UNL1     0.0317
     82 H         -3.749316   6.035505   3.007892 H        1 UNL1     0.0428
     83 H         -4.350084   5.473178   1.463687 H        1 UNL1     0.0428
     84 H         -0.129972   5.867278   1.835806 H        1 UNL1     0.0428
     85 H         -1.068059   6.312649   3.218108 H        1 UNL1     0.0428
     86 H         -0.020446   4.048433   3.244301 H        1 UNL1     0.0317
     87 H         -0.862859   3.533563   1.85592 H        1 UNL1     0.0317
     88 H         -2.841308   7.78404   1.509723 H        1 UNL1     0.0429
     89 H         -1.366625   7.468345   0.592181 H        1 UNL1     0.0429
     90 H         -2.612657   6.503961   -1.236491 H        1 UNL1     0.0308
     91 H         -4.959795   6.267294   0.727035 H        1 UNL1     0.0233
     92 H         -5.115475   6.030498   -1.032279 H        1 UNL1     0.0233
     93 H         -4.124722   4.945637   -0.080393 H        1 UNL1     0.0233
     94 H         -4.558964   8.203757   -1.539076 H        1 UNL1     0.0233
     95 H         -3.914787   8.930278   -0.058694 H        1 UNL1     0.0233
     96 H         -2.880934   8.782924   -1.498634 H        1 UNL1     0.0233
     97 H         -6.35342   -1.231217   8.741975 H        1 UNL1     0.0280
     98 H         -4.850962   -2.071201   9.014438 H        1 UNL1     0.0280
     99 H         -5.358362   -0.774126   10.136878 H        1 UNL1     0.0280
     100 H         -6.444479   2.090562   9.14505 H        1 UNL1     0.2922
     101 H         2.747945   -0.298319   4.655561 H        1 UNL1     0.0236
     102 H         3.313299   1.407799   4.844239 H        1 UNL1     0.0236
     103 H         3.533486   0.541852   3.355229 H        1 UNL1     0.0236
     104 H         3.104805   0.360168   1.152439 H        1 UNL1     0.2098
     105 H         0.940769   -0.835694   -1.194721 H        1 UNL1     0.0234
     106 H         -0.369579   -1.626346   -0.273334 H        1 UNL1     0.0234
     107 H         -0.0   0.0   0.0 H        1 UNL1     0.0234
     108 H         1.735544   -3.684192   2.995047 H        1 UNL1     0.2098
     109 H         -2.654367   -1.675088   1.782165 H        1 UNL1     0.0234
     110 H         -1.381951   -1.242547   0.596134 H        1 UNL1     0.0234
     111 H         -2.979553   -1.631279   0.061907 H        1 UNL1     0.0234
     112 H         1.031182   -5.12607   -3.946613 H        1 UNL1     0.0342
     113 H         0.40699   -5.774819   -2.38849 H        1 UNL1     0.0342
     114 H         -0.711226   -5.290318   -3.666309 H        1 UNL1     0.0342
     115 H         0.457828   -6.258767   0.180748 H        1 UNL1     0.0234
     116 H         2.087592   -5.88044   0.747781 H        1 UNL1     0.0234
     117 H         0.658296   -5.761182   1.794939 H        1 UNL1     0.0234
     118 H         -4.359401   -3.005271   4.289665 H        1 UNL1     0.0309
     119 H         -5.236126   -1.73356   5.196399 H        1 UNL1     0.0309
     120 H         -4.249572   -1.353975   3.801844 H        1 UNL1     0.0309
     121 H         -0.338319   -6.437536   3.772781 H        1 UNL1     0.0524
     122 H         -1.972609   -5.810501   4.02334 H        1 UNL1     0.0524
     123 H         -1.662228   -6.955312   2.694125 H        1 UNL1     0.0524
@<TRIPOS>BOND
     1     1     2    1
     2     1    42    1
     3     2     3    2
     4     3     4    1
     5     4     5    2
     6     5     7    1
     7     6    75    1
     8     6    76    1
     9     6    77    1
    10     7     9   am
    11     9    10    1
    12    10    11    2
    13    10    43    1
    14    11    14    1
    15    11    15    1
    16    12    13   ar
    17    12    27   ar
    18    12    43    1
    19    13    14    1
    20    13    30   ar
    21    14    17    2
    22    15    16    1
    23    16    17    1
    24    16    18    1
    25    16    22    1
    26    18    19    1
    27    19    20    1
    28    20    21    1
    29    21    22    1
    30    23    24    1
    31    23    88    1
    32    23    89    1
    33    24    25    1
    34    24    26    1
    35    24    90    1
    36    25    91    1
    37    25    92    1
    38    25    93    1
    39    26    94    1
    40    26    95    1
    41    26    96    1
    42    27    28   ar
    43    28    29   ar
    44    29    30   ar
    45    29    31    1
    46    30    33    1
    47    31    32    1
    48    32    33    1
    49    32    35    1
    50    34    97    1
    51    34    98    1
    52    34    99    1
    53    35    61    1
    54    36    37    1
    55    36    60    1
    56    37    38    1
    57    38    39    1
    58    39    40    1
    59    40    41    1
    60    41    42    1
    61    45   100    1
    62    47   101    1
    63    47   102    1
    64    47   103    1
    65    48   104    1
    66    49   105    1
    67    49   106    1
    68    49   107    1
    69    50   108    1
    70    51    59    1
    71    52   109    1
    72    52   110    1
    73    52   111    1
    74    53    54    1
    75    54    55    2
    76    54    56    1
    77    56   112    1
    78    56   113    1
    79    56   114    1
    80    57   115    1
    81    57   116    1
    82    57   117    1
    83    58   118    1
    84    58   119    1
    85    58   120    1
    86    59   121    1
    87    59   122    1
    88    59   123    1
    89    60    61    2
    90     1    47    1
    91     1    62    1
    92     2    63    1
    93     3    64    1
    94     4    65    1
    95     5     6    1
    96     7     8    2
    97     9    78    1
    98    15    79    1
    99    18    80    1
   100    18    81    1
   101    19    82    1
   102    19    83    1
   103    20    23    1
   104    21    84    1
   105    21    85    1
   106    22    86    1
   107    22    87    1
   108    27    45    1
   109    28    34    1
   110    32    58    1
   111    33    46    2
   112    36    51    1
   113    36    66    1
   114    37    52    1
   115    37    67    1
   116    38    53    1
   117    38    68    1
   118    42    48    1
   119    42    72    1
   120    43    44    2
   121    60    73    1
   122    61    74    1
   123    39    69    1
   124    39    57    1
   125    40    70    1
   126    40    50    1
   127    41    71    1
   128    41    49    1
