@<TRIPOS>MOLECULE
*****
 123 128 0 0 0
SMALL
GASTEIGER

@<TRIPOS>ATOM
     1 C         4.3696   2.454888   -1.585965 C.3        1 UNL1     0.0009
     2 C         5.540986   2.492586   -3.022444 C.2        1 UNL1     -0.0787
     3 C         6.858824   2.260084   -3.574978 C.2        1 UNL1     -0.0649
     4 C         7.348691   2.39503   -5.189963 C.2        1 UNL1     -0.0542
     5 C         8.32738   2.016694   -6.141859 C.2        1 UNL1     0.0115
     6 C         9.717007   1.344472   -6.316147 C.3        1 UNL1     -0.0348
     7 C         7.984946   2.152929   -7.704283 C.2        1 UNL1     0.2441
     8 O         8.404019   3.067704   -8.400049 O.2        1 UNL1     -0.2702
     9 N         7.389952   1.015915   -8.278158 N.am        1 UNL1     -0.2772
     10 C         6.021872   1.068764   -8.140733 C.2        1 UNL1     0.1049
     11 C         5.536872   0.657645   -6.983158 C.2        1 UNL1     0.0801
     12 C         4.051251   2.572598   -8.476102 C.ar        1 UNL1     0.0753
     13 C         3.678506   2.254155   -7.131384 C.ar        1 UNL1     0.0305
     14 C         4.338572   1.183631   -6.387514 C.2        1 UNL1     0.0924
     15 N         6.139095   -0.004548   -5.980484 N.pl3        1 UNL1     -0.3170
     16 C         5.128138   -0.364592   -5.022054 C.3        1 UNL1     0.1275
     17 N         4.061229   0.690518   -5.183834 N.2        1 UNL1     -0.2557
     18 C         4.503628   -1.674177   -5.49394 C.3        1 UNL1     0.0016
     19 C         5.606968   -2.706879   -5.660543 C.3        1 UNL1     0.0026
     20 N         6.283018   -2.879487   -4.382188 N.3        1 UNL1     -0.3018
     21 C         6.863793   -1.66009   -3.81638 C.3        1 UNL1     0.0026
     22 C         5.73724   -0.638249   -3.653239 C.3        1 UNL1     0.0016
     23 C         7.14389   -4.0451   -4.352372 C.3        1 UNL1     0.0012
     24 C         7.161329   -4.737051   -5.724472 C.3        1 UNL1     -0.0339
     25 C         7.295685   -6.262216   -5.583488 C.3        1 UNL1     -0.0615
     26 C         5.922262   -4.355812   -6.515769 C.3        1 UNL1     -0.0615
     27 C         3.338837   3.510502   -9.219687 C.ar        1 UNL1     0.1347
     28 C         2.216508   4.163029   -8.741527 C.ar        1 UNL1     0.0342
     29 C         1.897346   3.869919   -7.398624 C.ar        1 UNL1     0.1435
     30 C         2.623448   2.959593   -6.629663 C.ar        1 UNL1     0.0774
     31 O         0.769459   4.341001   -6.823334 O.3        1 UNL1     -0.4436
     32 C         0.55444   3.484231   -5.691706 C.3        1 UNL1     0.3143
     33 C         1.917675   2.908092   -5.366335 C.2        1 UNL1     0.2504
     34 C         1.26008   4.986184   -9.558692 C.3        1 UNL1     -0.0327
     35 O         0.180889   4.320121   -4.589436 O.2        1 UNL1     -0.4528
     36 C         -2.084459   2.203604   -2.399311 C.3        1 UNL1     0.0854
     37 C         -1.7939   0.811466   -1.717364 C.3        1 UNL1     0.0236
     38 C         -2.02327   0.775188   -0.1306 C.3        1 UNL1     0.1131
     39 C         -1.356589   1.879883   0.784526 C.3        1 UNL1     0.0200
     40 C         0.225166   2.344973   0.53119 C.3        1 UNL1     0.0661
     41 C         1.553248   1.302476   0.366848 C.3        1 UNL1     0.0091
     42 C         3.088639   1.477924   -0.621683 C.3        1 UNL1     0.0661
     43 C         5.167159   1.805705   -9.083461 C.2        1 UNL1     0.2131
     44 O         5.327839   1.688514   -10.284788 O.2        1 UNL1     -0.2851
     45 O         3.794926   3.795984   -10.504958 O.3        1 UNL1     -0.5056
     46 O         2.334836   2.515693   -4.299632 O.2        1 UNL1     -0.2836
     47 C         4.675969   3.62223   -0.609527 C.3        1 UNL1     -0.0566
     48 O         3.985865   1.083718   0.491287 O.3        1 UNL1     -0.3909
     49 C         1.044674   -0.104676   0.146007 C.3        1 UNL1     -0.0577
     50 O         0.296319   3.374138   -0.434977 O.3        1 UNL1     -0.3910
     51 O         -2.336707   3.278371   -1.522568 O.3        1 UNL1     -0.3753
     52 C         -0.602566   0.065439   -2.402284 C.3        1 UNL1     -0.0564
     53 O         -2.085004   -0.613274   0.435692 O.3        1 UNL1     -0.4608
     54 C         -1.007098   -1.353151   0.846339 C.2        1 UNL1     0.3042
     55 O         -0.46445   -2.279497   0.245295 O.2        1 UNL1     -0.2512
     56 C         -0.432162   -0.901133   2.158529 C.3        1 UNL1     0.0332
     57 C         -2.44275   3.029821   1.021319 C.3        1 UNL1     -0.0567
     58 C         -0.367233   2.341302   -6.177261 C.3        1 UNL1     0.0210
     59 C         -2.983796   2.917899   -0.30306 C.3        1 UNL1     0.0372
     60 C         -1.041509   2.665336   -3.35546 C.2        1 UNL1     -0.0208
     61 C         -0.476757   3.864126   -3.506127 C.2        1 UNL1     0.0882
     62 H         3.571828   2.805182   -2.251971 H        1 UNL1     0.0365
     63 H         4.910159   2.949805   -3.787609 H        1 UNL1     0.0576
     64 H         7.653233   1.797136   -2.985316 H        1 UNL1     0.0615
     65 H         6.526649   2.935226   -5.667371 H        1 UNL1     0.0622
     66 H         -2.989364   2.033436   -2.999506 H        1 UNL1     0.0645
     67 H         -2.613425   0.162746   -2.072471 H        1 UNL1     0.0362
     68 H         -3.103981   0.981105   -0.096208 H        1 UNL1     0.0741
     69 H         -1.337793   1.521452   1.805106 H        1 UNL1     0.0359
     70 H         0.430728   2.853433   1.492582 H        1 UNL1     0.0600
     71 H         1.888663   1.249053   1.421173 H        1 UNL1     0.0348
     72 H         2.676148   2.492193   -0.519579 H        1 UNL1     0.0602
     73 H         -0.849644   1.895869   -4.061404 H        1 UNL1     0.0628
     74 H         -0.575964   4.686109   -2.79638 H        1 UNL1     0.1022
     75 H         10.378646   1.973118   -6.959632 H        1 UNL1     0.0279
     76 H         10.313626   1.222996   -5.414837 H        1 UNL1     0.0279
     77 H         9.668776   0.413189   -6.899317 H        1 UNL1     0.0279
     78 H         7.714182   0.180081   -7.796148 H        1 UNL1     0.1553
     79 H         6.994918   -0.517591   -6.086722 H        1 UNL1     0.1484
     80 H         3.757819   -1.99993   -4.758808 H        1 UNL1     0.0317
     81 H         3.970583   -1.534745   -6.440551 H        1 UNL1     0.0317
     82 H         6.318204   -2.419229   -6.448777 H        1 UNL1     0.0428
     83 H         5.13997   -3.632225   -5.999213 H        1 UNL1     0.0428
     84 H         7.295087   -1.800895   -2.820402 H        1 UNL1     0.0428
     85 H         7.703073   -1.288618   -4.420478 H        1 UNL1     0.0428
     86 H         6.169629   0.186352   -3.117458 H        1 UNL1     0.0317
     87 H         4.980086   -1.022884   -2.95907 H        1 UNL1     0.0317
     88 H         8.162772   -3.711232   -4.116352 H        1 UNL1     0.0429
     89 H         6.842687   -4.743135   -3.560666 H        1 UNL1     0.0429
     90 H         8.013683   -4.363546   -6.304298 H        1 UNL1     0.0308
     91 H         6.614635   -6.652723   -4.821401 H        1 UNL1     0.0233
     92 H         7.090769   -6.757689   -6.535394 H        1 UNL1     0.0233
     93 H         8.308001   -6.567087   -5.291763 H        1 UNL1     0.0233
     94 H         5.722697   -5.105251   -7.289301 H        1 UNL1     0.0233
     95 H         5.053312   -4.315795   -5.852982 H        1 UNL1     0.0233
     96 H         6.041879   -3.382648   -7.000137 H        1 UNL1     0.0233
     97 H         1.772754   5.739041   -10.149965 H        1 UNL1     0.0280
     98 H         0.695304   4.374956   -10.274712 H        1 UNL1     0.0280
     99 H         0.548619   5.497559   -8.889802 H        1 UNL1     0.0280
     100 H         4.404703   4.511086   -10.554184 H        1 UNL1     0.2922
     101 H         4.895974   3.224821   0.381089 H        1 UNL1     0.0236
     102 H         3.889768   4.375979   -0.582469 H        1 UNL1     0.0236
     103 H         5.585609   4.175192   -0.897592 H        1 UNL1     0.0236
     104 H         4.905658   1.223801   0.192409 H        1 UNL1     0.2098
     105 H         1.45543   -0.598167   -0.731238 H        1 UNL1     0.0234
     106 H         1.118445   -0.757292   1.015821 H        1 UNL1     0.0234
     107 H         -0.0   0.0   0.0 H        1 UNL1     0.0234
     108 H         1.235203   3.62988   -0.517803 H        1 UNL1     0.2098
     109 H         -0.917213   -0.876099   -2.87368 H        1 UNL1     0.0234
     110 H         -0.072414   0.682957   -3.135328 H        1 UNL1     0.0234
     111 H         0.173381   -0.210618   -1.675892 H        1 UNL1     0.0234
     112 H         0.434361   -1.517247   2.417156 H        1 UNL1     0.0342
     113 H         -0.170991   0.156004   2.148793 H        1 UNL1     0.0342
     114 H         -1.194327   -1.048565   2.936046 H        1 UNL1     0.0342
     115 H         -2.353133   3.47664   2.021074 H        1 UNL1     0.0234
     116 H         -2.395325   3.842016   0.293212 H        1 UNL1     0.0234
     117 H         -3.480755   2.655906   1.047289 H        1 UNL1     0.0234
     118 H         -0.412677   2.285018   -7.278975 H        1 UNL1     0.0309
     119 H         -0.0827   1.361783   -5.780038 H        1 UNL1     0.0309
     120 H         -1.413066   2.493357   -5.888785 H        1 UNL1     0.0309
     121 H         -3.523802   3.793953   0.055099 H        1 UNL1     0.0524
     122 H         -3.719701   2.108683   -0.443242 H        1 UNL1     0.0524
     123 H         -2.249655   2.603194   0.433209 H        1 UNL1     0.0524
@<TRIPOS>BOND
     1     1     2    1
     2     1    42    1
     3     2     3    2
     4     3     4    1
     5     4     5    2
     6     5     7    1
     7     6    75    1
     8     6    76    1
     9     6    77    1
    10     7     9   am
    11     9    10    1
    12    10    11    2
    13    10    43    1
    14    11    14    1
    15    11    15    1
    16    12    13   ar
    17    12    27   ar
    18    12    43    1
    19    13    14    1
    20    13    30   ar
    21    14    17    2
    22    15    16    1
    23    16    17    1
    24    16    18    1
    25    16    22    1
    26    18    19    1
    27    19    20    1
    28    20    21    1
    29    21    22    1
    30    23    24    1
    31    23    88    1
    32    23    89    1
    33    24    25    1
    34    24    26    1
    35    24    90    1
    36    25    91    1
    37    25    92    1
    38    25    93    1
    39    26    94    1
    40    26    95    1
    41    26    96    1
    42    27    28   ar
    43    28    29   ar
    44    29    30   ar
    45    29    31    1
    46    30    33    1
    47    31    32    1
    48    32    33    1
    49    32    35    1
    50    34    97    1
    51    34    98    1
    52    34    99    1
    53    35    61    1
    54    36    37    1
    55    36    60    1
    56    37    38    1
    57    38    39    1
    58    39    40    1
    59    40    41    1
    60    41    42    1
    61    45   100    1
    62    47   101    1
    63    47   102    1
    64    47   103    1
    65    48   104    1
    66    49   105    1
    67    49   106    1
    68    49   107    1
    69    50   108    1
    70    51    59    1
    71    52   109    1
    72    52   110    1
    73    52   111    1
    74    53    54    1
    75    54    55    2
    76    54    56    1
    77    56   112    1
    78    56   113    1
    79    56   114    1
    80    57   115    1
    81    57   116    1
    82    57   117    1
    83    58   118    1
    84    58   119    1
    85    58   120    1
    86    59   121    1
    87    59   122    1
    88    59   123    1
    89    60    61    2
    90     1    47    1
    91     1    62    1
    92     2    63    1
    93     3    64    1
    94     4    65    1
    95     5     6    1
    96     7     8    2
    97     9    78    1
    98    15    79    1
    99    18    80    1
   100    18    81    1
   101    19    82    1
   102    19    83    1
   103    20    23    1
   104    21    84    1
   105    21    85    1
   106    22    86    1
   107    22    87    1
   108    27    45    1
   109    28    34    1
   110    32    58    1
   111    33    46    2
   112    36    51    1
   113    36    66    1
   114    37    52    1
   115    37    67    1
   116    38    53    1
   117    38    68    1
   118    42    48    1
   119    42    72    1
   120    43    44    2
   121    60    73    1
   122    61    74    1
   123    39    69    1
   124    39    57    1
   125    40    70    1
   126    40    50    1
   127    41    71    1
   128    41    49    1
