@<TRIPOS>MOLECULE
*****
 123 128 0 0 0
SMALL
GASTEIGER

@<TRIPOS>ATOM
     1 C         0.042744   -4.685082   -2.652812 C.3        1 UNL1     0.0009
     2 C         -1.046384   -6.08336   -3.196553 C.2        1 UNL1     -0.0787
     3 C         -1.451537   -7.470044   -3.101656 C.2        1 UNL1     -0.0649
     4 C         -2.752407   -8.22929   -3.874728 C.2        1 UNL1     -0.0542
     5 C         -3.623841   -9.346097   -3.854184 C.2        1 UNL1     0.0115
     6 C         -3.878415   -10.729368   -3.194581 C.3        1 UNL1     -0.0348
     7 C         -4.995691   -9.276414   -4.684943 C.2        1 UNL1     0.2441
     8 O         -5.14761   -9.828141   -5.766166 O.2        1 UNL1     -0.2702
     9 N         -6.091335   -8.761258   -3.970568 N.am        1 UNL1     -0.2772
     10 C         -6.140376   -7.391243   -4.088794 C.2        1 UNL1     0.1049
     11 C         -5.366042   -6.707914   -3.265574 C.2        1 UNL1     0.0801
     12 C         -6.05161   -5.54092   -5.769793 C.ar        1 UNL1     0.0753
     13 C         -5.054631   -4.93863   -4.937995 C.ar        1 UNL1     0.0305
     14 C         -4.775907   -5.438445   -3.593544 C.2        1 UNL1     0.0924
     15 N         -4.685695   -7.116282   -2.180728 N.pl3        1 UNL1     -0.3170
     16 C         -4.139735   -5.949629   -1.539556 C.3        1 UNL1     0.1275
     17 N         -3.96756   -4.950028   -2.657087 N.2        1 UNL1     -0.2557
     18 C         -5.225605   -5.38416   -0.629154 C.3        1 UNL1     0.0016
     19 C         -5.673483   -6.47578   0.32968 C.3        1 UNL1     0.0026
     20 N         -4.521935   -6.921442   1.101917 N.3        1 UNL1     -0.3018
     21 C         -3.399003   -7.425845   0.30884 C.3        1 UNL1     0.0026
     22 C         -2.96229   -6.31169   -0.643965 C.3        1 UNL1     0.0016
     23 C         -4.889089   -7.737849   2.241795 C.3        1 UNL1     0.0012
     24 C         -6.226578   -7.266124   2.833702 C.3        1 UNL1     -0.0339
     25 C         -6.109195   -5.856003   3.435231 C.3        1 UNL1     -0.0615
     26 C         -7.316318   -7.334571   1.777973 C.3        1 UNL1     -0.0615
     27 C         -6.396185   -4.986433   -7.000212 C.ar        1 UNL1     0.1347
     28 C         -5.843317   -3.814618   -7.485222 C.ar        1 UNL1     0.0342
     29 C         -4.829135   -3.266011   -6.671817 C.ar        1 UNL1     0.1435
     30 C         -4.447945   -3.830319   -5.453839 C.ar        1 UNL1     0.0774
     31 O         -4.271323   -2.068105   -6.952666 O.3        1 UNL1     -0.4436
     32 C         -3.678829   -1.64495   -5.715426 C.3        1 UNL1     0.3143
     33 C         -3.452186   -2.919809   -4.928291 C.2        1 UNL1     0.2504
     34 C         -6.338439   -3.029534   -8.667846 C.3        1 UNL1     -0.0327
     35 O         -2.38594   -1.109417   -6.023473 O.2        1 UNL1     -0.4528
     36 C         -1.704408   1.542069   -3.394171 C.3        1 UNL1     0.0854
     37 C         -1.675238   1.403221   -1.823377 C.3        1 UNL1     0.0236
     38 C         -0.318743   1.898757   -1.126161 C.3        1 UNL1     0.1131
     39 C         1.074953   1.3715   -1.657085 C.3        1 UNL1     0.0200
     40 C         1.280825   -0.240563   -2.032995 C.3        1 UNL1     0.0661
     41 C         0.862504   -1.553011   -1.042997 C.3        1 UNL1     0.0091
     42 C         0.28263   -3.237245   -1.481751 C.3        1 UNL1     0.0661
     43 C         -6.770395   -6.725663   -5.238764 C.2        1 UNL1     0.2131
     44 O         -7.863229   -7.084727   -5.638171 O.2        1 UNL1     -0.2851
     45 O         -7.343282   -5.660019   -7.768801 O.3        1 UNL1     -0.5056
     46 O         -2.622033   -3.141188   -4.075243 O.2        1 UNL1     -0.2836
     47 C         1.467325   -4.848382   -3.247691 C.3        1 UNL1     -0.0566
     48 O         1.221069   -3.92375   -0.561339 O.3        1 UNL1     -0.3909
     49 C         -0.027781   -1.05702   0.074536 C.3        1 UNL1     -0.0577
     50 O         0.890707   -0.497904   -3.366902 O.3        1 UNL1     -0.3910
     51 O         -0.488326   1.91441   -4.002398 O.3        1 UNL1     -0.3753
     52 C         -2.442769   0.130547   -1.337428 C.3        1 UNL1     -0.0564
     53 O         -0.440346   2.087349   0.357743 O.3        1 UNL1     -0.4608
     54 C         0.363931   2.887805   1.126078 C.2        1 UNL1     0.3042
     55 O         0.52882   2.831647   2.344067 O.2        1 UNL1     -0.2512
     56 C         1.149419   3.891466   0.330852 C.3        1 UNL1     0.0332
     57 C         1.639291   2.455389   -2.689017 C.3        1 UNL1     -0.0567
     58 C         -4.745233   -0.79283   -4.988651 C.3        1 UNL1     0.0210
     59 C         -0.11587   3.278541   -3.811908 C.3        1 UNL1     0.0372
     60 C         -2.198818   0.341946   -4.122473 C.2        1 UNL1     -0.0208
     61 C         -1.72172   -0.267527   -5.208597 C.2        1 UNL1     0.0882
     62 H         -0.505222   -4.019868   -3.330998 H        1 UNL1     0.0365
     63 H         -1.611161   -5.601882   -3.9976 H        1 UNL1     0.0576
     64 H         -1.021494   -8.142286   -2.355827 H        1 UNL1     0.0615
     65 H         -3.052793   -7.512585   -4.643874 H        1 UNL1     0.0622
     66 H         -2.439568   2.335929   -3.587488 H        1 UNL1     0.0645
     67 H         -2.392982   2.165444   -1.473494 H        1 UNL1     0.0362
     68 H         -0.350524   2.964669   -1.398821 H        1 UNL1     0.0741
     69 H         1.822769   1.534036   -0.892389 H        1 UNL1     0.0359
     70 H         2.386269   -0.291965   -2.053294 H        1 UNL1     0.0600
     71 H         1.820071   -1.703723   -0.506985 H        1 UNL1     0.0348
     72 H         0.763261   -2.836811   -2.386163 H        1 UNL1     0.0602
     73 H         -3.137149   0.051017   -3.719804 H        1 UNL1     0.0628
     74 H         -0.743641   -0.068454   -5.647877 H        1 UNL1     0.1022
     75 H         -3.879815   -10.638633   -2.081567 H        1 UNL1     0.0279
     76 H         -4.842864   -11.191398   -3.393164 H        1 UNL1     0.0279
     77 H         -3.050022   -11.435205   -3.353513 H        1 UNL1     0.0279
     78 H         -5.988306   -8.979909   -2.981804 H        1 UNL1     0.1553
     79 H         -4.885324   -7.965732   -1.685232 H        1 UNL1     0.1484
     80 H         -4.824586   -4.517355   -0.090082 H        1 UNL1     0.0317
     81 H         -6.07778   -5.022459   -1.214494 H        1 UNL1     0.0317
     82 H         -6.143288   -7.316638   -0.201501 H        1 UNL1     0.0428
     83 H         -6.449041   -6.051765   0.968249 H        1 UNL1     0.0428
     84 H         -2.51816   -7.678899   0.907079 H        1 UNL1     0.0428
     85 H         -3.650502   -8.363605   -0.205622 H        1 UNL1     0.0428
     86 H         -2.061673   -6.665913   -1.110229 H        1 UNL1     0.0317
     87 H         -2.625205   -5.439293   -0.070909 H        1 UNL1     0.0317
     88 H         -5.005502   -8.773558   1.89676 H        1 UNL1     0.0429
     89 H         -4.097921   -7.73932   3.002601 H        1 UNL1     0.0429
     90 H         -6.533146   -7.959314   3.625989 H        1 UNL1     0.0308
     91 H         -5.803507   -5.895606   4.485036 H        1 UNL1     0.0233
     92 H         -5.389107   -5.255518   2.874429 H        1 UNL1     0.0233
     93 H         -7.057952   -5.306914   3.400659 H        1 UNL1     0.0233
     94 H         -7.479792   -8.373167   1.470678 H        1 UNL1     0.0233
     95 H         -8.256093   -6.951738   2.185678 H        1 UNL1     0.0233
     96 H         -7.051457   -6.749838   0.892589 H        1 UNL1     0.0233
     97 H         -5.942542   -3.41056   -9.604496 H        1 UNL1     0.0280
     98 H         -7.431234   -3.07149   -8.764251 H        1 UNL1     0.0280
     99 H         -6.031277   -1.975786   -8.566046 H        1 UNL1     0.0280
     100 H         -8.053643   -6.032624   -7.276688 H        1 UNL1     0.2922
     101 H         1.902675   -3.866854   -3.434047 H        1 UNL1     0.0236
     102 H         1.491769   -5.481588   -4.13394 H        1 UNL1     0.0236
     103 H         2.159593   -5.331421   -2.538021 H        1 UNL1     0.0236
     104 H         0.847769   -3.863091   0.339737 H        1 UNL1     0.2098
     105 H         -1.066002   -1.369084   -0.006251 H        1 UNL1     0.0234
     106 H         0.348837   -1.25383   1.078205 H        1 UNL1     0.0234
     107 H         0.0   0.0   0.0 H        1 UNL1     0.0234
     108 H         0.786451   0.365904   -3.810448 H        1 UNL1     0.2098
     109 H         -2.349985   -0.7062   -2.043797 H        1 UNL1     0.0234
     110 H         -2.14039   -0.198803   -0.337509 H        1 UNL1     0.0234
     111 H         -3.520151   0.319926   -1.240848 H        1 UNL1     0.0234
     112 H         1.951633   3.387107   -0.216342 H        1 UNL1     0.0342
     113 H         0.51625   4.464823   -0.344576 H        1 UNL1     0.0342
     114 H         1.613144   4.598201   1.032741 H        1 UNL1     0.0342
     115 H         1.936761   1.996082   -3.641769 H        1 UNL1     0.0234
     116 H         0.936462   3.259122   -2.917257 H        1 UNL1     0.0234
     117 H         2.589871   2.915131   -2.368117 H        1 UNL1     0.0234
     118 H         -4.844324   0.213552   -5.431803 H        1 UNL1     0.0309
     119 H         -5.729945   -1.270025   -4.959855 H        1 UNL1     0.0309
     120 H         -4.478486   -0.584826   -3.946688 H        1 UNL1     0.0309
     121 H         0.1221   3.411082   -2.756844 H        1 UNL1     0.0524
     122 H         0.781498   3.552065   -4.391522 H        1 UNL1     0.0524
     123 H         -0.933333   3.934685   -4.097078 H        1 UNL1     0.0524
@<TRIPOS>BOND
     1     1     2    1
     2     1    42    1
     3     2     3    2
     4     3     4    1
     5     4     5    2
     6     5     7    1
     7     6    75    1
     8     6    76    1
     9     6    77    1
    10     7     9   am
    11     9    10    1
    12    10    11    2
    13    10    43    1
    14    11    14    1
    15    11    15    1
    16    12    13   ar
    17    12    27   ar
    18    12    43    1
    19    13    14    1
    20    13    30   ar
    21    14    17    2
    22    15    16    1
    23    16    17    1
    24    16    18    1
    25    16    22    1
    26    18    19    1
    27    19    20    1
    28    20    21    1
    29    21    22    1
    30    23    24    1
    31    23    88    1
    32    23    89    1
    33    24    25    1
    34    24    26    1
    35    24    90    1
    36    25    91    1
    37    25    92    1
    38    25    93    1
    39    26    94    1
    40    26    95    1
    41    26    96    1
    42    27    28   ar
    43    28    29   ar
    44    29    30   ar
    45    29    31    1
    46    30    33    1
    47    31    32    1
    48    32    33    1
    49    32    35    1
    50    34    97    1
    51    34    98    1
    52    34    99    1
    53    35    61    1
    54    36    37    1
    55    36    60    1
    56    37    38    1
    57    38    39    1
    58    39    40    1
    59    40    41    1
    60    41    42    1
    61    45   100    1
    62    47   101    1
    63    47   102    1
    64    47   103    1
    65    48   104    1
    66    49   105    1
    67    49   106    1
    68    49   107    1
    69    50   108    1
    70    51    59    1
    71    52   109    1
    72    52   110    1
    73    52   111    1
    74    53    54    1
    75    54    55    2
    76    54    56    1
    77    56   112    1
    78    56   113    1
    79    56   114    1
    80    57   115    1
    81    57   116    1
    82    57   117    1
    83    58   118    1
    84    58   119    1
    85    58   120    1
    86    59   121    1
    87    59   122    1
    88    59   123    1
    89    60    61    2
    90     1    47    1
    91     1    62    1
    92     2    63    1
    93     3    64    1
    94     4    65    1
    95     5     6    1
    96     7     8    2
    97     9    78    1
    98    15    79    1
    99    18    80    1
   100    18    81    1
   101    19    82    1
   102    19    83    1
   103    20    23    1
   104    21    84    1
   105    21    85    1
   106    22    86    1
   107    22    87    1
   108    27    45    1
   109    28    34    1
   110    32    58    1
   111    33    46    2
   112    36    51    1
   113    36    66    1
   114    37    52    1
   115    37    67    1
   116    38    53    1
   117    38    68    1
   118    42    48    1
   119    42    72    1
   120    43    44    2
   121    60    73    1
   122    61    74    1
   123    39    69    1
   124    39    57    1
   125    40    70    1
   126    40    50    1
   127    41    71    1
   128    41    49    1
