@<TRIPOS>MOLECULE
*****
 123 128 0 0 0
SMALL
GASTEIGER

@<TRIPOS>ATOM
     1 C         4.9603   2.322631   -0.009216 C.3        1 UNL1     0.0009
     2 C         6.410292   2.84516   -1.039518 C.2        1 UNL1     -0.0787
     3 C         7.753197   2.612319   -1.527821 C.2        1 UNL1     -0.0649
     4 C         8.608474   3.503366   -2.68579 C.2        1 UNL1     -0.0542
     5 C         9.689503   3.482108   -3.601215 C.2        1 UNL1     0.0115
     6 C         10.936136   2.673838   -4.055009 C.3        1 UNL1     -0.0348
     7 C         9.736448   4.577806   -4.773491 C.2        1 UNL1     0.2441
     8 O         10.460495   5.56309   -4.734795 O.2        1 UNL1     -0.2702
     9 N         9.08773   4.197703   -5.961278 N.am        1 UNL1     -0.2772
     10 C         7.756882   4.543952   -5.913552 C.2        1 UNL1     0.1049
     11 C         6.958269   3.700712   -5.284755 C.2        1 UNL1     0.0801
     12 C         6.220027   6.447759   -5.393043 C.ar        1 UNL1     0.0753
     13 C         5.503893   5.537225   -4.552395 C.ar        1 UNL1     0.0305
     14 C         5.773739   4.101354   -4.575001 C.2        1 UNL1     0.0924
     15 N         7.189343   2.447423   -4.857672 N.pl3        1 UNL1     -0.3170
     16 C         5.941132   1.905263   -4.390463 C.3        1 UNL1     0.1275
     17 N         5.148627   3.110238   -3.945834 N.2        1 UNL1     -0.2557
     18 C         5.209807   1.34213   -5.605266 C.3        1 UNL1     0.0016
     19 C         6.114819   0.332203   -6.292717 C.3        1 UNL1     0.0026
     20 N         6.444234   -0.72256   -5.344039 N.3        1 UNL1     -0.3018
     21 C         7.096188   -0.270388   -4.113241 C.3        1 UNL1     0.0026
     22 C         6.167745   0.739675   -3.436734 C.3        1 UNL1     0.0016
     23 C         7.048865   -1.879228   -5.974266 C.3        1 UNL1     0.0012
     24 C         6.012271   -2.634894   -6.820551 C.3        1 UNL1     -0.0339
     25 C         6.07687   -2.212946   -8.297658 C.3        1 UNL1     -0.0615
     26 C         6.200199   -4.133292   -6.658489 C.3        1 UNL1     -0.0615
     27 C         5.875785   7.796017   -5.454805 C.ar        1 UNL1     0.1347
     28 C         4.813402   8.340058   -4.755225 C.ar        1 UNL1     0.0342
     29 C         4.153597   7.435027   -3.896889 C.ar        1 UNL1     0.1435
     30 C         4.510297   6.089637   -3.797332 C.ar        1 UNL1     0.0774
     31 O         3.03101   7.785258   -3.231952 O.3        1 UNL1     -0.4436
     32 C         2.415295   6.537784   -2.877584 C.3        1 UNL1     0.3143
     33 C         3.542311   5.524848   -2.88039 C.2        1 UNL1     0.2504
     34 C         4.23108   9.710592   -4.961713 C.3        1 UNL1     -0.0327
     35 O         1.963466   6.655423   -1.522865 O.2        1 UNL1     -0.4528
     36 C         -1.082192   4.407404   -1.242737 C.3        1 UNL1     0.0854
     37 C         -1.210951   2.863041   -1.535804 C.3        1 UNL1     0.0236
     38 C         -1.792506   1.990991   -0.322104 C.3        1 UNL1     0.1131
     39 C         -1.157482   2.130679   1.119944 C.3        1 UNL1     0.0200
     40 C         0.498459   2.18973   1.311798 C.3        1 UNL1     0.0661
     41 C         1.616332   1.107844   0.635414 C.3        1 UNL1     0.0091
     42 C         3.339641   1.377766   0.067302 C.3        1 UNL1     0.0661
     43 C         7.284313   5.891405   -6.264838 C.2        1 UNL1     0.2131
     44 O         7.685769   6.443849   -7.272993 O.2        1 UNL1     -0.2851
     45 O         6.652376   8.623718   -6.263047 O.3        1 UNL1     -0.5056
     46 O         3.631144   4.494684   -2.250528 O.2        1 UNL1     -0.2836
     47 C         5.24809   2.576662   1.494986 C.3        1 UNL1     -0.0566
     48 O         3.877369   0.184892   0.765167 O.3        1 UNL1     -0.3909
     49 C         0.921962   0.293259   -0.433134 C.3        1 UNL1     -0.0577
     50 O         0.97087   3.515659   1.183491 O.3        1 UNL1     -0.3910
     51 O         -1.323767   4.8041   0.088317 O.3        1 UNL1     -0.3753
     52 C         -0.053276   2.345984   -2.450895 C.3        1 UNL1     -0.0564
     53 O         -2.231958   0.614621   -0.728076 O.3        1 UNL1     -0.4608
     54 C         -2.404236   -0.447621   0.120389 C.2        1 UNL1     0.3042
     55 O         -1.726811   -1.472958   0.180543 O.2        1 UNL1     -0.2512
     56 C         -3.526683   -0.258397   1.100706 C.3        1 UNL1     0.0332
     57 C         -2.04036   3.185894   1.935555 C.3        1 UNL1     -0.0567
     58 C         1.432975   6.194304   -4.021525 C.3        1 UNL1     0.0210
     59 C         -1.788474   6.144668   0.239278 C.3        1 UNL1     0.0372
     60 C         0.214705   5.017598   -1.643839 C.2        1 UNL1     -0.0208
     61 C         1.008008   5.868627   -0.991791 C.2        1 UNL1     0.0882
     62 H         4.409669   3.197834   -0.374643 H        1 UNL1     0.0365
     63 H         6.061216   3.81261   -1.406472 H        1 UNL1     0.0576
     64 H         8.297133   1.695001   -1.29167 H        1 UNL1     0.0615
     65 H         8.027051   4.423674   -2.788085 H        1 UNL1     0.0622
     66 H         -1.84516   4.874126   -1.881561 H        1 UNL1     0.0645
     67 H         -2.03445   2.796848   -2.267943 H        1 UNL1     0.0362
     68 H         -2.797219   2.433426   -0.242584 H        1 UNL1     0.0741
     69 H         -1.43349   1.264969   1.707119 H        1 UNL1     0.0359
     70 H         0.5728   1.973182   2.394684 H        1 UNL1     0.0600
     71 H         1.691575   0.368824   1.457086 H        1 UNL1     0.0348
     72 H         3.107086   2.216398   0.73956 H        1 UNL1     0.0602
     73 H         0.415973   4.775227   -2.65774 H        1 UNL1     0.0628
     74 H         0.904184   6.123249   0.063493 H        1 UNL1     0.1022
     75 H         11.044183   1.744631   -3.445145 H        1 UNL1     0.0279
     76 H         10.919597   2.286461   -5.071245 H        1 UNL1     0.0279
     77 H         11.881606   3.190056   -3.832959 H        1 UNL1     0.0279
     78 H         9.137562   3.186855   -6.069821 H        1 UNL1     0.1553
     79 H         7.938769   1.872719   -5.196801 H        1 UNL1     0.1484
     80 H         4.2717   0.879768   -5.275201 H        1 UNL1     0.0317
     81 H         4.936947   2.141231   -6.302859 H        1 UNL1     0.0317
     82 H         7.024761   0.80533   -6.690294 H        1 UNL1     0.0428
     83 H         5.574616   -0.055481   -7.156969 H        1 UNL1     0.0428
     84 H         7.26033   -1.070235   -3.384466 H        1 UNL1     0.0428
     85 H         8.102782   0.125912   -4.305677 H        1 UNL1     0.0428
     86 H         6.612277   0.946621   -2.480935 H        1 UNL1     0.0317
     87 H         5.217199   0.258598   -3.175726 H        1 UNL1     0.0317
     88 H         7.850865   -1.527263   -6.636242 H        1 UNL1     0.0429
     89 H         7.512243   -2.541354   -5.231539 H        1 UNL1     0.0429
     90 H         5.008157   -2.415901   -6.438438 H        1 UNL1     0.0308
     91 H         7.074567   -2.378245   -8.715247 H        1 UNL1     0.0233
     92 H         5.344077   -2.766093   -8.889816 H        1 UNL1     0.0233
     93 H         5.844897   -1.150379   -8.438985 H        1 UNL1     0.0233
     94 H         5.597149   -4.67171   -7.397593 H        1 UNL1     0.0233
     95 H         7.248663   -4.39814   -6.821406 H        1 UNL1     0.0233
     96 H         5.90276   -4.467135   -5.660468 H        1 UNL1     0.0233
     97 H         3.374886   9.890659   -4.318488 H        1 UNL1     0.0280
     98 H         4.952324   10.505647   -4.731605 H        1 UNL1     0.0280
     99 H         3.90528   9.819163   -6.009168 H        1 UNL1     0.0280
     100 H         6.166033   9.117407   -6.899729 H        1 UNL1     0.2922
     101 H         4.374239   2.306124   2.087312 H        1 UNL1     0.0236
     102 H         5.583758   3.592346   1.70162 H        1 UNL1     0.0236
     103 H         6.056047   1.930508   1.876933 H        1 UNL1     0.0236
     104 H         4.220146   0.479594   1.631554 H        1 UNL1     0.2098
     105 H         0.701379   0.843104   -1.344631 H        1 UNL1     0.0234
     106 H         1.406782   -0.653469   -0.671003 H        1 UNL1     0.0234
     107 H         0.0   -0.0   0.0 H        1 UNL1     0.0234
     108 H         0.793376   3.799352   0.266004 H        1 UNL1     0.2098
     109 H         0.936394   2.509146   -2.001847 H        1 UNL1     0.0234
     110 H         -0.161081   1.291491   -2.726878 H        1 UNL1     0.0234
     111 H         -0.033   2.872576   -3.414345 H        1 UNL1     0.0234
     112 H         -3.604664   -1.135029   1.750922 H        1 UNL1     0.0342
     113 H         -3.410365   0.652768   1.685592 H        1 UNL1     0.0342
     114 H         -4.465121   -0.173684   0.535619 H        1 UNL1     0.0342
     115 H         -3.088474   2.866141   2.015572 H        1 UNL1     0.0234
     116 H         -1.678145   3.380014   2.947072 H        1 UNL1     0.0234
     117 H         -2.152213   4.156198   1.421803 H        1 UNL1     0.0234
     118 H         0.464651   6.711984   -3.90593 H        1 UNL1     0.0309
     119 H         1.838208   6.410325   -5.015167 H        1 UNL1     0.0309
     120 H         1.15347   5.135116   -4.031738 H        1 UNL1     0.0309
     121 H         -1.01007   6.807799   -0.137152 H        1 UNL1     0.0524
     122 H         -2.702224   6.339185   -0.346608 H        1 UNL1     0.0524
     123 H         -1.988537   6.357527   1.285586 H        1 UNL1     0.0524
@<TRIPOS>BOND
     1     1     2    1
     2     1    42    1
     3     2     3    2
     4     3     4    1
     5     4     5    2
     6     5     7    1
     7     6    75    1
     8     6    76    1
     9     6    77    1
    10     7     9   am
    11     9    10    1
    12    10    11    2
    13    10    43    1
    14    11    14    1
    15    11    15    1
    16    12    13   ar
    17    12    27   ar
    18    12    43    1
    19    13    14    1
    20    13    30   ar
    21    14    17    2
    22    15    16    1
    23    16    17    1
    24    16    18    1
    25    16    22    1
    26    18    19    1
    27    19    20    1
    28    20    21    1
    29    21    22    1
    30    23    24    1
    31    23    88    1
    32    23    89    1
    33    24    25    1
    34    24    26    1
    35    24    90    1
    36    25    91    1
    37    25    92    1
    38    25    93    1
    39    26    94    1
    40    26    95    1
    41    26    96    1
    42    27    28   ar
    43    28    29   ar
    44    29    30   ar
    45    29    31    1
    46    30    33    1
    47    31    32    1
    48    32    33    1
    49    32    35    1
    50    34    97    1
    51    34    98    1
    52    34    99    1
    53    35    61    1
    54    36    37    1
    55    36    60    1
    56    37    38    1
    57    38    39    1
    58    39    40    1
    59    40    41    1
    60    41    42    1
    61    45   100    1
    62    47   101    1
    63    47   102    1
    64    47   103    1
    65    48   104    1
    66    49   105    1
    67    49   106    1
    68    49   107    1
    69    50   108    1
    70    51    59    1
    71    52   109    1
    72    52   110    1
    73    52   111    1
    74    53    54    1
    75    54    55    2
    76    54    56    1
    77    56   112    1
    78    56   113    1
    79    56   114    1
    80    57   115    1
    81    57   116    1
    82    57   117    1
    83    58   118    1
    84    58   119    1
    85    58   120    1
    86    59   121    1
    87    59   122    1
    88    59   123    1
    89    60    61    2
    90     1    47    1
    91     1    62    1
    92     2    63    1
    93     3    64    1
    94     4    65    1
    95     5     6    1
    96     7     8    2
    97     9    78    1
    98    15    79    1
    99    18    80    1
   100    18    81    1
   101    19    82    1
   102    19    83    1
   103    20    23    1
   104    21    84    1
   105    21    85    1
   106    22    86    1
   107    22    87    1
   108    27    45    1
   109    28    34    1
   110    32    58    1
   111    33    46    2
   112    36    51    1
   113    36    66    1
   114    37    52    1
   115    37    67    1
   116    38    53    1
   117    38    68    1
   118    42    48    1
   119    42    72    1
   120    43    44    2
   121    60    73    1
   122    61    74    1
   123    39    69    1
   124    39    57    1
   125    40    70    1
   126    40    50    1
   127    41    71    1
   128    41    49    1
