@<TRIPOS>MOLECULE
*****
 123 128 0 0 0
SMALL
GASTEIGER

@<TRIPOS>ATOM
     1 C         0.141839   3.192491   3.140799 C.3        1 UNL1     0.0009
     2 C         -1.243919   4.135905   3.932432 C.2        1 UNL1     -0.0787
     3 C         -1.963055   5.375544   4.137823 C.2        1 UNL1     -0.0649
     4 C         -3.404462   5.612858   4.993618 C.2        1 UNL1     -0.0542
     5 C         -4.513487   6.473633   5.183899 C.2        1 UNL1     0.0115
     6 C         -5.086329   7.878027   4.847965 C.3        1 UNL1     -0.0348
     7 C         -5.82945   5.898235   5.90094 C.2        1 UNL1     0.2441
     8 O         -6.104794   6.128801   7.070364 O.2        1 UNL1     -0.2702
     9 N         -6.774888   5.330751   5.029012 N.am        1 UNL1     -0.2772
     10 C         -6.501157   3.997702   4.825604 C.2        1 UNL1     0.1049
     11 C         -5.589488   3.723814   3.910145 C.2        1 UNL1     0.0801
     12 C         -5.978387   1.872694   6.037374 C.ar        1 UNL1     0.0753
     13 C         -4.869293   1.728171   5.144272 C.ar        1 UNL1     0.0305
     14 C         -4.717642   2.581933   3.9682 C.2        1 UNL1     0.0924
     15 N         -5.025559   4.521419   2.986923 N.pl3        1 UNL1     -0.3170
     16 C         -4.222289   3.69588   2.124661 C.3        1 UNL1     0.1275
     17 N         -3.818786   2.52668   2.989461 N.2        1 UNL1     -0.2557
     18 C         -5.146739   3.129493   1.051209 C.3        1 UNL1     0.0016
     19 C         -5.839584   4.285141   0.346913 C.3        1 UNL1     0.0026
     20 N         -4.825844   5.151511   -0.238544 N.3        1 UNL1     -0.3018
     21 C         -3.851233   5.696444   0.708848 C.3        1 UNL1     0.0026
     22 C         -3.163966   4.518392   1.401491 C.3        1 UNL1     0.0016
     23 C         -5.375974   6.108496   -1.177788 C.3        1 UNL1     0.0012
     24 C         -5.849298   5.397982   -2.455634 C.3        1 UNL1     -0.0339
     25 C         -5.643358   6.279545   -3.698411 C.3        1 UNL1     -0.0615
     26 C         -5.14687   4.058865   -2.597551 C.3        1 UNL1     -0.0615
     27 C         -6.181414   0.979256   7.086501 C.ar        1 UNL1     0.1347
     28 C         -5.368447   -0.116059   7.317623 C.ar        1 UNL1     0.0342
     29 C         -4.255186   -0.210309   6.455687 C.ar        1 UNL1     0.1435
     30 C         -4.018849   0.697816   5.422888 C.ar        1 UNL1     0.0774
     31 O         -3.431617   -1.280827   6.482702 O.3        1 UNL1     -0.4436
     32 C         -2.758371   -1.252524   5.215101 C.3        1 UNL1     0.3143
     33 C         -2.838193   0.189457   4.756263 C.2        1 UNL1     0.2504
     34 C         -5.663832   -1.250321   8.259057 C.3        1 UNL1     -0.0327
     35 O         -1.375475   -1.536192   5.46083 O.2        1 UNL1     -0.4528
     36 C         -0.095398   -3.262688   2.332139 C.3        1 UNL1     0.0854
     37 C         -0.102066   -2.753218   0.839518 C.3        1 UNL1     0.0236
     38 C         1.331703   -2.746734   0.121181 C.3        1 UNL1     0.1131
     39 C         2.56376   -2.056407   0.83375 C.3        1 UNL1     0.0200
     40 C         2.386513   -0.575899   1.581492 C.3        1 UNL1     0.0661
     41 C         1.670574   0.802424   0.899387 C.3        1 UNL1     0.0091
     42 C         0.712662   2.156941   1.68239 C.3        1 UNL1     0.0661
     43 C         -6.95575   2.953251   5.755561 C.2        1 UNL1     0.2131
     44 O         -8.101679   2.948504   6.167341 O.2        1 UNL1     -0.2851
     45 O         -7.258832   1.21745   7.937308 O.3        1 UNL1     -0.5056
     46 O         -2.084428   0.789797   4.023266 O.2        1 UNL1     -0.2836
     47 C         1.489355   3.531001   3.833324 C.3        1 UNL1     -0.0566
     48 O         1.462532   3.237207   0.996946 O.3        1 UNL1     -0.3909
     49 C         0.919641   0.395292   -0.348747 C.3        1 UNL1     -0.0577
     50 O         1.94903   -0.737499   2.91574 O.3        1 UNL1     -0.3910
     51 O         1.17504   -3.480786   2.902973 O.3        1 UNL1     -0.3753
     52 C         -1.147362   -1.611406   0.61913 C.3        1 UNL1     -0.0564
     53 O         1.255374   -2.60147   -1.370596 O.3        1 UNL1     -0.4608
     54 C         2.270049   -2.161044   -2.17954 C.2        1 UNL1     0.3042
     55 O         2.389352   -1.047362   -2.688771 O.2        1 UNL1     -0.2512
     56 C         3.357178   -3.176694   -2.387678 C.3        1 UNL1     0.0332
     57 C         3.368122   -3.195477   1.617136 C.3        1 UNL1     -0.0567
     58 C         -3.596399   -2.128643   4.255072 C.3        1 UNL1     0.0210
     59 C         1.908458   -2.294524   3.204213 C.3        1 UNL1     0.0372
     60 C         -0.856266   -2.414395   3.289551 C.2        1 UNL1     -0.0208
     61 C         -0.53366   -1.986929   4.511003 C.2        1 UNL1     0.0882
     62 H         -0.233817   2.278742   3.616884 H        1 UNL1     0.0365
     63 H         -1.678803   3.362774   4.569311 H        1 UNL1     0.0576
     64 H         -1.70379   6.28503   3.591267 H        1 UNL1     0.0615
     65 H         -3.527223   4.685446   5.559586 H        1 UNL1     0.0622
     66 H         -0.623628   -4.225918   2.29738 H        1 UNL1     0.0645
     67 H         -0.621639   -3.554062   0.285214 H        1 UNL1     0.0362
     68 H         1.551155   -3.825183   0.138814 H        1 UNL1     0.0741
     69 H         3.327636   -1.85834   0.093701 H        1 UNL1     0.0359
     70 H         3.449121   -0.279929   1.672743 H        1 UNL1     0.0600
     71 H         2.565268   1.290079   0.465022 H        1 UNL1     0.0348
     72 H         1.275204   1.67442   2.494816 H        1 UNL1     0.0602
     73 H         -1.837286   -2.258449   2.914678 H        1 UNL1     0.0628
     74 H         0.464521   -2.055716   4.944755 H        1 UNL1     0.1022
     75 H         -4.3158   8.667462   5.021492 H        1 UNL1     0.0279
     76 H         -5.370032   8.051212   3.812306 H        1 UNL1     0.0279
     77 H         -5.878516   8.191684   5.543493 H        1 UNL1     0.0279
     78 H         -6.727553   5.794721   4.124264 H        1 UNL1     0.1553
     79 H         -5.419569   5.395361   2.690418 H        1 UNL1     0.1484
     80 H         -4.554511   2.52991   0.349402 H        1 UNL1     0.0317
     81 H         -5.889431   2.454949   1.490584 H        1 UNL1     0.0317
     82 H         -6.492609   4.84639   1.031362 H        1 UNL1     0.0428
     83 H         -6.495111   3.858828   -0.413082 H        1 UNL1     0.0428
     84 H         -3.055217   6.277972   0.233458 H        1 UNL1     0.0428
     85 H         -4.314783   6.402978   1.411164 H        1 UNL1     0.0428
     86 H         -2.370774   4.948096   1.984748 H        1 UNL1     0.0317
     87 H         -2.632633   3.906982   0.661924 H        1 UNL1     0.0317
     88 H         -6.241337   6.591708   -0.705615 H        1 UNL1     0.0429
     89 H         -4.652385   6.900511   -1.409963 H        1 UNL1     0.0429
     90 H         -6.917375   5.167724   -2.363955 H        1 UNL1     0.0308
     91 H         -4.647902   6.733575   -3.703453 H        1 UNL1     0.0233
     92 H         -5.775934   5.695823   -4.612359 H        1 UNL1     0.0233
     93 H         -6.36797   7.10104   -3.752439 H        1 UNL1     0.0233
     94 H         -5.164698   3.731909   -3.642834 H        1 UNL1     0.0233
     95 H         -4.101183   4.151112   -2.290971 H        1 UNL1     0.0233
     96 H         -5.627291   3.289523   -1.986587 H        1 UNL1     0.0233
     97 H         -5.686048   -2.208425   7.748397 H        1 UNL1     0.0280
     98 H         -4.902192   -1.345702   9.043954 H        1 UNL1     0.0280
     99 H         -6.645235   -1.089291   8.734465 H        1 UNL1     0.0280
     100 H         -7.31654   2.100212   8.258282 H        1 UNL1     0.2922
     101 H         1.788596   2.705463   4.478769 H        1 UNL1     0.0236
     102 H         1.470542   4.480933   4.366483 H        1 UNL1     0.0236
     103 H         2.31384   3.632162   3.107939 H        1 UNL1     0.0236
     104 H         2.228999   3.466213   1.558244 H        1 UNL1     0.2098
     105 H         0.693928   1.216077   -1.024894 H        1 UNL1     0.0234
     106 H         1.364511   -0.434732   -0.897452 H        1 UNL1     0.0234
     107 H         0.0   -0.0   0.0 H        1 UNL1     0.0234
     108 H         1.580521   0.119085   3.205967 H        1 UNL1     0.2098
     109 H         -0.951992   -0.739431   1.25882 H        1 UNL1     0.0234
     110 H         -1.220324   -1.290448   -0.425574 H        1 UNL1     0.0234
     111 H         -2.164965   -1.940688   0.868136 H        1 UNL1     0.0234
     112 H         4.142807   -2.756095   -3.022682 H        1 UNL1     0.0342
     113 H         3.767356   -3.536523   -1.445277 H        1 UNL1     0.0342
     114 H         2.924869   -4.03915   -2.913456 H        1 UNL1     0.0342
     115 H         3.617747   -4.042391   0.963214 H        1 UNL1     0.0234
     116 H         4.297014   -2.848581   2.074161 H        1 UNL1     0.0234
     117 H         2.771289   -3.697728   2.397825 H        1 UNL1     0.0234
     118 H         -3.077483   -3.066474   3.990111 H        1 UNL1     0.0309
     119 H         -4.589658   -2.367645   4.648158 H        1 UNL1     0.0309
     120 H         -3.761892   -1.648625   3.28435 H        1 UNL1     0.0309
     121 H         2.967921   -2.548707   3.187332 H        1 UNL1     0.0524
     122 H         1.745568   -1.500686   2.456332 H        1 UNL1     0.0524
     123 H         1.628794   -1.918413   4.184224 H        1 UNL1     0.0524
@<TRIPOS>BOND
     1     1     2    1
     2     1    42    1
     3     2     3    2
     4     3     4    1
     5     4     5    2
     6     5     7    1
     7     6    75    1
     8     6    76    1
     9     6    77    1
    10     7     9   am
    11     9    10    1
    12    10    11    2
    13    10    43    1
    14    11    14    1
    15    11    15    1
    16    12    13   ar
    17    12    27   ar
    18    12    43    1
    19    13    14    1
    20    13    30   ar
    21    14    17    2
    22    15    16    1
    23    16    17    1
    24    16    18    1
    25    16    22    1
    26    18    19    1
    27    19    20    1
    28    20    21    1
    29    21    22    1
    30    23    24    1
    31    23    88    1
    32    23    89    1
    33    24    25    1
    34    24    26    1
    35    24    90    1
    36    25    91    1
    37    25    92    1
    38    25    93    1
    39    26    94    1
    40    26    95    1
    41    26    96    1
    42    27    28   ar
    43    28    29   ar
    44    29    30   ar
    45    29    31    1
    46    30    33    1
    47    31    32    1
    48    32    33    1
    49    32    35    1
    50    34    97    1
    51    34    98    1
    52    34    99    1
    53    35    61    1
    54    36    37    1
    55    36    60    1
    56    37    38    1
    57    38    39    1
    58    39    40    1
    59    40    41    1
    60    41    42    1
    61    45   100    1
    62    47   101    1
    63    47   102    1
    64    47   103    1
    65    48   104    1
    66    49   105    1
    67    49   106    1
    68    49   107    1
    69    50   108    1
    70    51    59    1
    71    52   109    1
    72    52   110    1
    73    52   111    1
    74    53    54    1
    75    54    55    2
    76    54    56    1
    77    56   112    1
    78    56   113    1
    79    56   114    1
    80    57   115    1
    81    57   116    1
    82    57   117    1
    83    58   118    1
    84    58   119    1
    85    58   120    1
    86    59   121    1
    87    59   122    1
    88    59   123    1
    89    60    61    2
    90     1    47    1
    91     1    62    1
    92     2    63    1
    93     3    64    1
    94     4    65    1
    95     5     6    1
    96     7     8    2
    97     9    78    1
    98    15    79    1
    99    18    80    1
   100    18    81    1
   101    19    82    1
   102    19    83    1
   103    20    23    1
   104    21    84    1
   105    21    85    1
   106    22    86    1
   107    22    87    1
   108    27    45    1
   109    28    34    1
   110    32    58    1
   111    33    46    2
   112    36    51    1
   113    36    66    1
   114    37    52    1
   115    37    67    1
   116    38    53    1
   117    38    68    1
   118    42    48    1
   119    42    72    1
   120    43    44    2
   121    60    73    1
   122    61    74    1
   123    39    69    1
   124    39    57    1
   125    40    70    1
   126    40    50    1
   127    41    71    1
   128    41    49    1
