@<TRIPOS>MOLECULE
*****
 123 128 0 0 0
SMALL
GASTEIGER

@<TRIPOS>ATOM
     1 C         3.023402   -1.575891   -3.30218 C.3        1 UNL1     0.0009
     2 C         3.40426   -3.164238   -4.179185 C.2        1 UNL1     -0.0787
     3 C         4.041116   -4.464188   -4.203484 C.2        1 UNL1     -0.0649
     4 C         3.917899   -5.661201   -5.394422 C.2        1 UNL1     -0.0542
     5 C         4.082265   -7.039827   -5.676294 C.2        1 UNL1     0.0115
     6 C         4.645486   -8.37732   -5.12202 C.3        1 UNL1     -0.0348
     7 C         3.368611   -7.657766   -6.974692 C.2        1 UNL1     0.2441
     8 O         3.969673   -7.900867   -8.01207 O.2        1 UNL1     -0.2702
     9 N         2.067529   -8.143352   -6.756652 N.am        1 UNL1     -0.2772
     10 C         1.144452   -7.137586   -6.928945 C.2        1 UNL1     0.1049
     11 C         0.950569   -6.341775   -5.892935 C.2        1 UNL1     0.0801
     12 C         0.465929   -5.316404   -8.503822 C.ar        1 UNL1     0.0753
     13 C         0.473538   -4.441367   -7.371187 C.ar        1 UNL1     0.0305
     14 C         0.588141   -4.955141   -6.008119 C.2        1 UNL1     0.0924
     15 N         1.351914   -6.471773   -4.616788 N.pl3        1 UNL1     -0.3170
     16 C         0.733646   -5.421108   -3.852523 C.3        1 UNL1     0.1275
     17 N         0.514295   -4.308419   -4.848281 N.2        1 UNL1     -0.2557
     18 C         -0.654714   -5.910464   -3.451666 C.3        1 UNL1     0.0016
     19 C         -0.509626   -7.227364   -2.705802 C.3        1 UNL1     0.0026
     20 N         0.328337   -7.011606   -1.534353 N.3        1 UNL1     -0.3018
     21 C         1.664465   -6.481964   -1.814725 C.3        1 UNL1     0.0026
     22 C         1.494814   -5.156989   -2.560079 C.3        1 UNL1     0.0016
     23 C         0.286247   -8.118224   -0.599329 C.3        1 UNL1     0.0012
     24 C         1.356472   -7.944167   0.489744 C.3        1 UNL1     -0.0339
     25 C         1.890234   -6.502757   0.528406 C.3        1 UNL1     -0.0615
     26 C         0.80207   -8.371307   1.837694 C.3        1 UNL1     -0.0615
     27 C         0.235403   -4.831406   -9.789028 C.ar        1 UNL1     0.1347
     28 C         -0.038075   -3.502599   -10.060195 C.ar        1 UNL1     0.0342
     29 C         0.022978   -2.65178   -8.93612 C.ar        1 UNL1     0.1435
     30 C         0.288497   -3.117848   -7.647904 C.ar        1 UNL1     0.0774
     31 O         -0.327122   -1.349581   -9.018057 O.3        1 UNL1     -0.4436
     32 C         -0.59339   -0.959638   -7.662359 C.3        1 UNL1     0.3143
     33 C         0.18035   -1.943289   -6.807975 C.2        1 UNL1     0.2504
     34 C         -0.540057   -2.954613   -11.367032 C.3        1 UNL1     -0.0327
     35 O         0.005622   0.326814   -7.463664 O.2        1 UNL1     -0.4528
     36 C         -2.132275   2.079689   -4.86272 C.3        1 UNL1     0.0854
     37 C         -2.498152   1.619397   -3.399235 C.3        1 UNL1     0.0236
     38 C         -2.136189   2.675688   -2.248158 C.3        1 UNL1     0.1131
     39 C         -0.683012   3.297057   -2.181477 C.3        1 UNL1     0.0200
     40 C         0.659674   2.330847   -2.396116 C.3        1 UNL1     0.0661
     41 C         0.964375   0.862633   -1.602949 C.3        1 UNL1     0.0091
     42 C         1.848066   -0.639016   -2.177009 C.3        1 UNL1     0.0661
     43 C         0.622833   -6.770784   -8.253982 C.2        1 UNL1     0.2131
     44 O         0.254553   -7.63111   -9.03305 O.2        1 UNL1     -0.2851
     45 O         0.290163   -5.7425   -10.841809 O.3        1 UNL1     -0.5056
     46 O         0.626471   -1.785251   -5.69359 O.2        1 UNL1     -0.2836
     47 C         4.270738   -0.651731   -3.294287 C.3        1 UNL1     -0.0566
     48 O         2.660725   -0.770961   -0.943602 O.3        1 UNL1     -0.3909
     49 C         -0.309045   0.396286   -0.93331 C.3        1 UNL1     -0.0577
     50 O         0.979057   2.214236   -3.76802 O.3        1 UNL1     -0.3910
     51 O         -1.382844   3.269354   -4.9651 O.3        1 UNL1     -0.3753
     52 C         -2.300735   0.080242   -3.206944 C.3        1 UNL1     -0.0564
     53 O         -2.798051   2.381815   -0.933661 O.3        1 UNL1     -0.4608
     54 C         -2.78208   1.173161   -0.288035 C.2        1 UNL1     0.3042
     55 O         -3.750573   0.519176   0.096884 O.2        1 UNL1     -0.2512
     56 C         -1.402742   0.606337   -0.106796 C.3        1 UNL1     0.0332
     57 C         -0.722464   4.699509   -2.949427 C.3        1 UNL1     -0.0567
     58 C         -2.106467   -1.181648   -7.432496 C.3        1 UNL1     0.0210
     59 C         -1.146735   3.716066   -6.299479 C.3        1 UNL1     0.0372
     60 C         -1.43022   1.057904   -5.68627 C.2        1 UNL1     -0.0208
     61 C         -0.366766   1.171639   -6.48306 C.2        1 UNL1     0.0882
     62 H         2.413099   -1.270516   -4.16066 H        1 UNL1     0.0365
     63 H         2.944395   -2.9753   -5.151448 H        1 UNL1     0.0576
     64 H         4.556445   -4.865598   -3.328033 H        1 UNL1     0.0615
     65 H         3.46658   -5.139399   -6.242666 H        1 UNL1     0.0622
     66 H         -3.103053   2.245035   -5.350877 H        1 UNL1     0.0645
     67 H         -3.601614   1.642263   -3.378997 H        1 UNL1     0.0362
     68 H         -2.794963   3.505551   -2.546262 H        1 UNL1     0.0741
     69 H         -0.524715   3.706756   -1.192793 H        1 UNL1     0.0359
     70 H         1.441994   2.997622   -1.985696 H        1 UNL1     0.0600
     71 H         1.544911   1.229342   -0.733776 H        1 UNL1     0.0348
     72 H         2.175646   0.176789   -2.837666 H        1 UNL1     0.0602
     73 H         -1.985694   0.153258   -5.668574 H        1 UNL1     0.0628
     74 H         0.288641   2.042606   -6.516153 H        1 UNL1     0.1022
     75 H         5.452523   -8.768526   -5.787364 H        1 UNL1     0.0279
     76 H         5.140998   -8.33133   -4.154847 H        1 UNL1     0.0279
     77 H         3.913375   -9.197036   -5.1642 H        1 UNL1     0.0279
     78 H         1.982741   -8.476111   -5.798445 H        1 UNL1     0.1553
     79 H         1.641143   -7.3422   -4.209803 H        1 UNL1     0.1484
     80 H         -1.136305   -5.147788   -2.827837 H        1 UNL1     0.0317
     81 H         -1.292165   -6.043325   -4.33238 H        1 UNL1     0.0317
     82 H         -0.094118   -8.016373   -3.349798 H        1 UNL1     0.0428
     83 H         -1.51129   -7.559253   -2.430903 H        1 UNL1     0.0428
     84 H         2.243751   -6.254073   -0.914555 H        1 UNL1     0.0428
     85 H         2.286796   -7.208123   -2.355756 H        1 UNL1     0.0428
     86 H         2.480586   -4.735868   -2.630076 H        1 UNL1     0.0317
     87 H         0.956195   -4.438814   -1.929833 H        1 UNL1     0.0317
     88 H         -0.70178   -8.123559   -0.120717 H        1 UNL1     0.0429
     89 H         0.398971   -9.08055   -1.115076 H        1 UNL1     0.0429
     90 H         2.193656   -8.621082   0.282083 H        1 UNL1     0.0308
     91 H         2.732147   -6.40884   1.220838 H        1 UNL1     0.0233
     92 H         2.20665   -6.18118   -0.466621 H        1 UNL1     0.0233
     93 H         1.128635   -5.783994   0.854261 H        1 UNL1     0.0233
     94 H         1.61943   -8.654238   2.509787 H        1 UNL1     0.0233
     95 H         0.258861   -7.541387   2.298258 H        1 UNL1     0.0233
     96 H         0.125154   -9.224491   1.738551 H        1 UNL1     0.0233
     97 H         -1.526499   -3.334286   -11.616054 H        1 UNL1     0.0280
     98 H         -0.634907   -1.86104   -11.348103 H        1 UNL1     0.0280
     99 H         0.153246   -3.236818   -12.176221 H        1 UNL1     0.0280
     100 H         -0.475006   -5.754355   -11.389529 H        1 UNL1     0.2922
     101 H         4.834537   -0.802944   -2.374004 H        1 UNL1     0.0236
     102 H         4.027708   0.397722   -3.45728 H        1 UNL1     0.0236
     103 H         4.978764   -0.904799   -4.101039 H        1 UNL1     0.0236
     104 H         2.223527   -1.431757   -0.371607 H        1 UNL1     0.2098
     105 H         -1.028845   1.186985   -0.737111 H        1 UNL1     0.0234
     106 H         -0.797742   -0.446881   -1.42134 H        1 UNL1     0.0234
     107 H         0.0   -0.0   0.0 H        1 UNL1     0.0234
     108 H         1.952999   2.214238   -3.840158 H        1 UNL1     0.2098
     109 H         -1.737718   -0.373521   -4.034484 H        1 UNL1     0.0234
     110 H         -1.823933   -0.176908   -2.254958 H        1 UNL1     0.0234
     111 H         -3.261753   -0.450214   -3.175188 H        1 UNL1     0.0234
     112 H         -0.699634   1.408745   0.136362 H        1 UNL1     0.0342
     113 H         -1.378009   -0.177188   0.649061 H        1 UNL1     0.0342
     114 H         -1.087445   0.159589   -1.059775 H        1 UNL1     0.0342
     115 H         -0.361527   5.521957   -2.316581 H        1 UNL1     0.0234
     116 H         -0.140707   4.716341   -3.873183 H        1 UNL1     0.0234
     117 H         -1.744332   5.04392   -3.184178 H        1 UNL1     0.0234
     118 H         -2.714426   -0.361551   -7.853011 H        1 UNL1     0.0309
     119 H         -2.466296   -2.135259   -7.831687 H        1 UNL1     0.0309
     120 H         -2.375508   -1.176595   -6.370564 H        1 UNL1     0.0309
     121 H         -2.098456   4.056661   -6.706393 H        1 UNL1     0.0524
     122 H         -0.445793   4.566492   -6.33811 H        1 UNL1     0.0524
     123 H         -0.750034   2.904496   -6.902866 H        1 UNL1     0.0524
@<TRIPOS>BOND
     1     1     2    1
     2     1    42    1
     3     2     3    2
     4     3     4    1
     5     4     5    2
     6     5     7    1
     7     6    75    1
     8     6    76    1
     9     6    77    1
    10     7     9   am
    11     9    10    1
    12    10    11    2
    13    10    43    1
    14    11    14    1
    15    11    15    1
    16    12    13   ar
    17    12    27   ar
    18    12    43    1
    19    13    14    1
    20    13    30   ar
    21    14    17    2
    22    15    16    1
    23    16    17    1
    24    16    18    1
    25    16    22    1
    26    18    19    1
    27    19    20    1
    28    20    21    1
    29    21    22    1
    30    23    24    1
    31    23    88    1
    32    23    89    1
    33    24    25    1
    34    24    26    1
    35    24    90    1
    36    25    91    1
    37    25    92    1
    38    25    93    1
    39    26    94    1
    40    26    95    1
    41    26    96    1
    42    27    28   ar
    43    28    29   ar
    44    29    30   ar
    45    29    31    1
    46    30    33    1
    47    31    32    1
    48    32    33    1
    49    32    35    1
    50    34    97    1
    51    34    98    1
    52    34    99    1
    53    35    61    1
    54    36    37    1
    55    36    60    1
    56    37    38    1
    57    38    39    1
    58    39    40    1
    59    40    41    1
    60    41    42    1
    61    45   100    1
    62    47   101    1
    63    47   102    1
    64    47   103    1
    65    48   104    1
    66    49   105    1
    67    49   106    1
    68    49   107    1
    69    50   108    1
    70    51    59    1
    71    52   109    1
    72    52   110    1
    73    52   111    1
    74    53    54    1
    75    54    55    2
    76    54    56    1
    77    56   112    1
    78    56   113    1
    79    56   114    1
    80    57   115    1
    81    57   116    1
    82    57   117    1
    83    58   118    1
    84    58   119    1
    85    58   120    1
    86    59   121    1
    87    59   122    1
    88    59   123    1
    89    60    61    2
    90     1    47    1
    91     1    62    1
    92     2    63    1
    93     3    64    1
    94     4    65    1
    95     5     6    1
    96     7     8    2
    97     9    78    1
    98    15    79    1
    99    18    80    1
   100    18    81    1
   101    19    82    1
   102    19    83    1
   103    20    23    1
   104    21    84    1
   105    21    85    1
   106    22    86    1
   107    22    87    1
   108    27    45    1
   109    28    34    1
   110    32    58    1
   111    33    46    2
   112    36    51    1
   113    36    66    1
   114    37    52    1
   115    37    67    1
   116    38    53    1
   117    38    68    1
   118    42    48    1
   119    42    72    1
   120    43    44    2
   121    60    73    1
   122    61    74    1
   123    39    69    1
   124    39    57    1
   125    40    70    1
   126    40    50    1
   127    41    71    1
   128    41    49    1
