@<TRIPOS>MOLECULE
*****
 123 128 0 0 0
SMALL
GASTEIGER

@<TRIPOS>ATOM
     1 C         0.587324   -1.610569   4.829102 C.3        1 UNL1     0.0009
     2 C         1.632734   -1.398514   6.345409 C.2        1 UNL1     -0.0787
     3 C         2.82209   -1.719385   7.106015 C.2        1 UNL1     -0.0649
     4 C         3.344025   -1.029773   8.561479 C.2        1 UNL1     -0.0542
     5 C         4.455947   -0.820235   9.414005 C.2        1 UNL1     0.0115
     6 C         5.934123   -1.221805   9.672965 C.3        1 UNL1     -0.0348
     7 C         4.374333   0.332685   10.528054 C.2        1 UNL1     0.2441
     8 O         4.164301   0.101444   11.710822 O.2        1 UNL1     -0.2702
     9 N         4.817831   1.596539   10.101282 N.am        1 UNL1     -0.2772
     10 C         3.782862   2.301113   9.530549 C.2        1 UNL1     0.1049
     11 C         3.5273   2.035143   8.262412 C.2        1 UNL1     0.0801
     12 C         1.407026   2.988416   9.905184 C.ar        1 UNL1     0.0753
     13 C         1.137862   2.490343   8.590619 C.ar        1 UNL1     0.0305
     14 C         2.216351   2.118197   7.677699 C.2        1 UNL1     0.0924
     15 N         4.24409   1.337416   7.364684 N.pl3        1 UNL1     -0.3170
     16 C         3.610908   1.491071   6.081825 C.3        1 UNL1     0.1275
     17 N         2.157305   1.736773   6.404924 N.2        1 UNL1     -0.2557
     18 C         4.134178   2.787868   5.471738 C.3        1 UNL1     0.0016
     19 C         5.652242   2.72256   5.418764 C.3        1 UNL1     0.0026
     20 N         6.043221   1.571229   4.61714 N.3        1 UNL1     -0.3018
     21 C         5.534789   0.282268   5.090896 C.3        1 UNL1     0.0026
     22 C         4.00812   0.368829   5.131907 C.3        1 UNL1     0.0016
     23 C         7.446601   1.586396   4.255285 C.3        1 UNL1     0.0012
     24 C         8.149885   0.321615   4.772466 C.3        1 UNL1     -0.0339
     25 C         9.547648   0.64228   5.326983 C.3        1 UNL1     -0.0615
     26 C         7.282057   -0.369584   5.809721 C.3        1 UNL1     -0.0615
     27 C         0.381441   3.454223   10.724524 C.ar        1 UNL1     0.1347
     28 C         -0.942239   3.508279   10.325778 C.ar        1 UNL1     0.0342
     29 C         -1.190112   2.967381   9.046265 C.ar        1 UNL1     0.1435
     30 C         -0.177689   2.46394   8.228483 C.ar        1 UNL1     0.0774
     31 O         -2.410083   3.047379   8.471568 O.3        1 UNL1     -0.4436
     32 C         -2.165204   2.846798   7.071327 C.3        1 UNL1     0.3143
     33 C         -0.853034   2.091997   7.002785 C.2        1 UNL1     0.2504
     34 C         -2.051814   4.221853   11.04672 C.3        1 UNL1     -0.0327
     35 O         -3.181391   1.962058   6.583628 O.2        1 UNL1     -0.4528
     36 C         -3.715234   2.896339   2.943543 C.3        1 UNL1     0.0854
     37 C         -2.67134   2.937019   1.761954 C.3        1 UNL1     0.0236
     38 C         -3.069915   2.063316   0.477615 C.3        1 UNL1     0.1131
     39 C         -3.496058   0.550718   0.658498 C.3        1 UNL1     0.0200
     40 C         -2.642333   -0.450793   1.68347 C.3        1 UNL1     0.0661
     41 C         -0.957554   -0.647412   1.705153 C.3        1 UNL1     0.0091
     42 C         0.180589   -1.008305   3.097916 C.3        1 UNL1     0.0661
     43 C         2.825141   3.075827   10.333633 C.2        1 UNL1     0.2131
     44 O         3.216152   3.813264   11.220218 O.2        1 UNL1     -0.2851
     45 O         0.722816   3.879456   12.00674 O.3        1 UNL1     -0.5056
     46 O         -0.462541   1.336311   6.141213 O.2        1 UNL1     -0.2836
     47 C         -0.148693   -2.976851   4.868287 C.3        1 UNL1     -0.0566
     48 O         0.907401   -2.08034   2.375696 O.3        1 UNL1     -0.3909
     49 C         -0.326155   0.463372   0.89584 C.3        1 UNL1     -0.0577
     50 O         -3.134368   -0.352614   3.004828 O.3        1 UNL1     -0.3910
     51 O         -4.770623   1.972516   2.80164 O.3        1 UNL1     -0.3753
     52 C         -1.200909   3.019715   2.287257 C.3        1 UNL1     -0.0564
     53 O         -2.261062   2.387971   -0.744138 O.3        1 UNL1     -0.4608
     54 C         -2.559429   1.995338   -2.02271 C.2        1 UNL1     0.3042
     55 O         -2.93682   2.706123   -2.953408 O.2        1 UNL1     -0.2512
     56 C         -2.328294   0.53205   -2.271866 C.3        1 UNL1     0.0332
     57 C         -5.09318   0.505   0.731196 C.3        1 UNL1     -0.0567
     58 C         -1.965299   4.251673   6.456595 C.3        1 UNL1     0.0210
     59 C         -4.362496   0.635466   2.515992 C.3        1 UNL1     0.0372
     60 C         -3.12884   2.674123   4.293329 C.2        1 UNL1     -0.0208
     61 C         -3.517474   1.868656   5.282739 C.2        1 UNL1     0.0882
     62 H         -0.111712   -0.866916   5.230402 H        1 UNL1     0.0365
     63 H         0.996264   -0.740912   6.941174 H        1 UNL1     0.0576
     64 H         3.607931   -2.358451   6.697167 H        1 UNL1     0.0615
     65 H         2.467491   -0.483322   8.920036 H        1 UNL1     0.0622
     66 H         -4.147065   3.906832   2.965253 H        1 UNL1     0.0645
     67 H         -2.756422   3.96326   1.364274 H        1 UNL1     0.0362
     68 H         -3.987154   2.590544   0.173928 H        1 UNL1     0.0741
     69 H         -3.405496   0.047242   -0.29477 H        1 UNL1     0.0359
     70 H         -2.999139   -1.436373   1.327967 H        1 UNL1     0.0600
     71 H         -0.854229   -1.505985   1.012959 H        1 UNL1     0.0348
     72 H         -0.821261   -1.305855   3.440078 H        1 UNL1     0.0602
     73 H         -2.352401   3.379477   4.457243 H        1 UNL1     0.0628
     74 H         -4.264161   1.080642   5.179158 H        1 UNL1     0.1022
     75 H         6.574908   -0.940868   8.802618 H        1 UNL1     0.0279
     76 H         6.433724   -0.725121   10.501682 H        1 UNL1     0.0279
     77 H         6.079189   -2.311554   9.706174 H        1 UNL1     0.0279
     78 H         5.539618   1.484331   9.392403 H        1 UNL1     0.1553
     79 H         5.221717   1.136087   7.467854 H        1 UNL1     0.1484
     80 H         3.703426   2.911389   4.470758 H        1 UNL1     0.0317
     81 H         3.813598   3.654348   6.060034 H        1 UNL1     0.0317
     82 H         6.09295   2.672093   6.425313 H        1 UNL1     0.0428
     83 H         6.004478   3.657654   4.982211 H        1 UNL1     0.0428
     84 H         5.775602   -0.554669   4.428056 H        1 UNL1     0.0428
     85 H         5.979689   -0.003626   6.054039 H        1 UNL1     0.0428
     86 H         3.667545   -0.625765   5.352767 H        1 UNL1     0.0317
     87 H         3.616071   0.553438   4.124279 H        1 UNL1     0.0317
     88 H         7.516683   1.602057   3.159777 H        1 UNL1     0.0429
     89 H         7.94326   2.4938   4.62233 H        1 UNL1     0.0429
     90 H         8.256927   -0.392642   3.947487 H        1 UNL1     0.0308
     91 H         10.224408   0.972208   4.533103 H        1 UNL1     0.0233
     92 H         9.490199   1.417653   6.094516 H        1 UNL1     0.0233
     93 H         10.016921   -0.226433   5.80443 H        1 UNL1     0.0233
     94 H         6.443837   0.27657   6.092047 H        1 UNL1     0.0233
     95 H         6.870335   -1.294426   5.39606 H        1 UNL1     0.0233
     96 H         7.85246   -0.60943   6.711432 H        1 UNL1     0.0233
     97 H         -2.706356   4.753658   10.362623 H        1 UNL1     0.0280
     98 H         -2.697026   3.528957   11.602465 H        1 UNL1     0.0280
     99 H         -1.623502   4.951853   11.752938 H        1 UNL1     0.0280
     100 H         0.167497   3.547481   12.690141 H        1 UNL1     0.2922
     101 H         0.106534   -3.557509   3.982086 H        1 UNL1     0.0236
     102 H         -1.226148   -2.879766   4.997313 H        1 UNL1     0.0236
     103 H         0.180772   -3.600571   5.716001 H        1 UNL1     0.0236
     104 H         1.851178   -2.013157   2.620119 H        1 UNL1     0.2098
     105 H         -1.00801   1.265959   0.626139 H        1 UNL1     0.0234
     106 H         0.589809   0.872907   1.321537 H        1 UNL1     0.0234
     107 H         0.0   0.0   0.0 H        1 UNL1     0.0234
     108 H         -2.952569   0.555283   3.315374 H        1 UNL1     0.2098
     109 H         -0.468334   3.057163   1.468939 H        1 UNL1     0.0234
     110 H         -1.033636   3.861668   2.967609 H        1 UNL1     0.0234
     111 H         -0.934356   2.137687   2.884687 H        1 UNL1     0.0234
     112 H         -1.875919   0.071046   -1.388589 H        1 UNL1     0.0342
     113 H         -3.243674   0.015512   -2.556664 H        1 UNL1     0.0342
     114 H         -1.617875   0.433763   -3.104218 H        1 UNL1     0.0342
     115 H         -5.446756   0.076131   1.678953 H        1 UNL1     0.0234
     116 H         -5.571028   1.47958   0.613273 H        1 UNL1     0.0234
     117 H         -5.547125   -0.187394   0.001493 H        1 UNL1     0.0234
     118 H         -2.896162   4.646477   6.013165 H        1 UNL1     0.0309
     119 H         -1.571506   4.981292   7.171287 H        1 UNL1     0.0309
     120 H         -1.266382   4.245821   5.613039 H        1 UNL1     0.0309
     121 H         -5.225707   -0.012137   2.667096 H        1 UNL1     0.0524
     122 H         -4.034266   0.512569   1.47043 H        1 UNL1     0.0524
     123 H         -3.552348   0.340485   3.176855 H        1 UNL1     0.0524
@<TRIPOS>BOND
     1     1     2    1
     2     1    42    1
     3     2     3    2
     4     3     4    1
     5     4     5    2
     6     5     7    1
     7     6    75    1
     8     6    76    1
     9     6    77    1
    10     7     9   am
    11     9    10    1
    12    10    11    2
    13    10    43    1
    14    11    14    1
    15    11    15    1
    16    12    13   ar
    17    12    27   ar
    18    12    43    1
    19    13    14    1
    20    13    30   ar
    21    14    17    2
    22    15    16    1
    23    16    17    1
    24    16    18    1
    25    16    22    1
    26    18    19    1
    27    19    20    1
    28    20    21    1
    29    21    22    1
    30    23    24    1
    31    23    88    1
    32    23    89    1
    33    24    25    1
    34    24    26    1
    35    24    90    1
    36    25    91    1
    37    25    92    1
    38    25    93    1
    39    26    94    1
    40    26    95    1
    41    26    96    1
    42    27    28   ar
    43    28    29   ar
    44    29    30   ar
    45    29    31    1
    46    30    33    1
    47    31    32    1
    48    32    33    1
    49    32    35    1
    50    34    97    1
    51    34    98    1
    52    34    99    1
    53    35    61    1
    54    36    37    1
    55    36    60    1
    56    37    38    1
    57    38    39    1
    58    39    40    1
    59    40    41    1
    60    41    42    1
    61    45   100    1
    62    47   101    1
    63    47   102    1
    64    47   103    1
    65    48   104    1
    66    49   105    1
    67    49   106    1
    68    49   107    1
    69    50   108    1
    70    51    59    1
    71    52   109    1
    72    52   110    1
    73    52   111    1
    74    53    54    1
    75    54    55    2
    76    54    56    1
    77    56   112    1
    78    56   113    1
    79    56   114    1
    80    57   115    1
    81    57   116    1
    82    57   117    1
    83    58   118    1
    84    58   119    1
    85    58   120    1
    86    59   121    1
    87    59   122    1
    88    59   123    1
    89    60    61    2
    90     1    47    1
    91     1    62    1
    92     2    63    1
    93     3    64    1
    94     4    65    1
    95     5     6    1
    96     7     8    2
    97     9    78    1
    98    15    79    1
    99    18    80    1
   100    18    81    1
   101    19    82    1
   102    19    83    1
   103    20    23    1
   104    21    84    1
   105    21    85    1
   106    22    86    1
   107    22    87    1
   108    27    45    1
   109    28    34    1
   110    32    58    1
   111    33    46    2
   112    36    51    1
   113    36    66    1
   114    37    52    1
   115    37    67    1
   116    38    53    1
   117    38    68    1
   118    42    48    1
   119    42    72    1
   120    43    44    2
   121    60    73    1
   122    61    74    1
   123    39    69    1
   124    39    57    1
   125    40    70    1
   126    40    50    1
   127    41    71    1
   128    41    49    1
