@<TRIPOS>MOLECULE
*****
 123 128 0 0 0
SMALL
GASTEIGER

@<TRIPOS>ATOM
     1 C         5.157627   1.787511   0.450512 C.3        1 UNL1     0.0009
     2 C         6.580347   2.607328   -0.410188 C.2        1 UNL1     -0.0787
     3 C         7.856941   2.521122   -1.087627 C.2        1 UNL1     -0.0649
     4 C         8.717978   3.765299   -1.847229 C.2        1 UNL1     -0.0542
     5 C         9.727262   4.068688   -2.794002 C.2        1 UNL1     0.0115
     6 C         10.852491   3.454644   -3.671574 C.3        1 UNL1     -0.0348
     7 C         9.805653   5.554451   -3.39679 C.2        1 UNL1     0.2441
     8 O         10.62648   6.381357   -3.023971 O.2        1 UNL1     -0.2702
     9 N         9.043402   5.759069   -4.560086 N.am        1 UNL1     -0.2772
     10 C         7.760583   6.134806   -4.233713 C.2        1 UNL1     0.1049
     11 C         6.92501   5.155965   -3.937218 C.2        1 UNL1     0.0801
     12 C         6.462434   7.727067   -2.806532 C.ar        1 UNL1     0.0753
     13 C         5.716189   6.591939   -2.355741 C.ar        1 UNL1     0.0305
     14 C         5.837473   5.289125   -3.006139 C.2        1 UNL1     0.0924
     15 N         7.056514   3.828464   -4.101462 N.pl3        1 UNL1     -0.3170
     16 C         5.794206   3.218484   -3.777801 C.3        1 UNL1     0.1275
     17 N         5.159204   4.165796   -2.78932 N.2        1 UNL1     -0.2557
     18 C         4.929651   3.274689   -5.033623 C.3        1 UNL1     0.0016
     19 C         5.67969   2.599877   -6.171014 C.3        1 UNL1     0.0026
     20 N         5.963964   1.222773   -5.791801 N.3        1 UNL1     -0.3018
     21 C         6.739602   1.064624   -4.559834 C.3        1 UNL1     0.0026
     22 C         5.965582   1.745701   -3.429825 C.3        1 UNL1     0.0016
     23 C         6.404871   0.410045   -6.907919 C.3        1 UNL1     0.0012
     24 C         5.242655   0.154516   -7.880398 C.3        1 UNL1     -0.0339
     25 C         5.260153   1.150419   -9.051691 C.3        1 UNL1     -0.0615
     26 C         5.278602   -1.283259   -8.368549 C.3        1 UNL1     -0.0615
     27 C         6.252777   8.991509   -2.261235 C.ar        1 UNL1     0.1347
     28 C         5.300284   9.250707   -1.291892 C.ar        1 UNL1     0.0342
     29 C         4.611698   8.109455   -0.828689 C.ar        1 UNL1     0.1435
     30 C         4.836554   6.830693   -1.339988 C.ar        1 UNL1     0.0774
     31 O         3.577537   8.212358   0.034404 O.3        1 UNL1     -0.4436
     32 C         2.864207   6.974384   -0.105077 C.3        1 UNL1     0.3143
     33 C         3.880379   5.990796   -0.649286 C.2        1 UNL1     0.2504
     34 C         4.846818   10.611966   -0.84307 C.3        1 UNL1     -0.0327
     35 O         2.51877   6.530959   1.212989 O.2        1 UNL1     -0.4528
     36 C         -0.712603   4.574764   0.83933 C.3        1 UNL1     0.0854
     37 C         -1.016137   3.314524   -0.059105 C.3        1 UNL1     0.0236
     38 C         -1.599807   2.046495   0.73031 C.3        1 UNL1     0.1131
     39 C         -0.858324   1.517348   2.023553 C.3        1 UNL1     0.0200
     40 C         0.80425   1.384624   2.049436 C.3        1 UNL1     0.0661
     41 C         1.759052   0.62678   0.86976 C.3        1 UNL1     0.0091
     42 C         3.458654   1.004307   0.291634 C.3        1 UNL1     0.0661
     43 C         7.403982   7.530115   -3.936557 C.2        1 UNL1     0.2131
     44 O         7.790431   8.433419   -4.655888 O.2        1 UNL1     -0.2851
     45 O         7.052846   10.034274   -2.723802 O.3        1 UNL1     -0.5056
     46 O         3.906879   4.787038   -0.522328 O.2        1 UNL1     -0.2836
     47 C         5.570177   1.35685   1.8838 C.3        1 UNL1     -0.0566
     48 O         3.91887   -0.403499   0.365106 O.3        1 UNL1     -0.3909
     49 C         0.915621   0.391395   -0.363412 C.3        1 UNL1     -0.0577
     50 O         1.398473   2.605949   2.440574 O.3        1 UNL1     -0.3910
     51 O         -0.822745   4.379986   2.231221 O.3        1 UNL1     -0.3753
     52 C         0.019164   3.165625   -1.221399 C.3        1 UNL1     -0.0564
     53 O         -2.202366   1.005533   -0.16727 O.3        1 UNL1     -0.4608
     54 C         -2.423575   -0.30401   0.170507 C.2        1 UNL1     0.3042
     55 O         -1.850686   -1.29737   -0.275443 O.2        1 UNL1     -0.2512
     56 C         -3.452637   -0.480936   1.250527 C.3        1 UNL1     0.0332
     57 C         -1.573192   2.17695   3.293223 C.3        1 UNL1     -0.0567
     58 C         1.777472   7.21432   -1.17884 C.3        1 UNL1     0.0210
     59 C         -1.138438   5.554309   2.977659 C.3        1 UNL1     0.0372
     60 C         0.609352   5.214861   0.598762 C.2        1 UNL1     -0.0208
     61 C         1.526636   5.654601   1.461294 C.2        1 UNL1     0.0882
     62 H         4.674886   2.767684   0.545025 H        1 UNL1     0.0365
     63 H         6.306885   3.658705   -0.299302 H        1 UNL1     0.0576
     64 H         8.320084   1.558527   -1.315697 H        1 UNL1     0.0615
     65 H         8.226936   4.67584   -1.493287 H        1 UNL1     0.0622
     66 H         -1.465773   5.31639   0.538049 H        1 UNL1     0.0645
     67 H         -1.889504   3.618957   -0.661692 H        1 UNL1     0.0362
     68 H         -2.547047   2.474937   1.091827 H        1 UNL1     0.0741
     69 H         -1.180227   0.503124   2.218834 H        1 UNL1     0.0359
     70 H         0.92904   0.722569   2.927599 H        1 UNL1     0.0600
     71 H         1.814381   -0.395279   1.293188 H        1 UNL1     0.0348
     72 H         3.357774   1.488761   1.273695 H        1 UNL1     0.0602
     73 H         0.716416   5.4161   -0.438199 H        1 UNL1     0.0628
     74 H         1.520317   5.44063   2.5306 H        1 UNL1     0.1022
     75 H         10.888136   2.345825   -3.543971 H        1 UNL1     0.0279
     76 H         10.741817   3.563117   -4.748168 H        1 UNL1     0.0279
     77 H         11.859176   3.743958   -3.336041 H        1 UNL1     0.0279
     78 H         8.98345   4.890226   -5.086958 H        1 UNL1     0.1553
     79 H         7.719522   3.4075   -4.726076 H        1 UNL1     0.1484
     80 H         3.973987   2.775713   -4.832391 H        1 UNL1     0.0317
     81 H         4.692586   4.310446   -5.299438 H        1 UNL1     0.0317
     82 H         6.603943   3.139141   -6.425698 H        1 UNL1     0.0428
     83 H         5.046158   2.652798   -7.056953 H        1 UNL1     0.0428
     84 H         6.870776   0.021727   -4.254923 H        1 UNL1     0.0428
     85 H         7.765836   1.44097   -4.671743 H        1 UNL1     0.0428
     86 H         6.492054   1.496672   -2.527162 H        1 UNL1     0.0317
     87 H         4.991033   1.260085   -3.297431 H        1 UNL1     0.0317
     88 H         7.191947   0.959585   -7.44066 H        1 UNL1     0.0429
     89 H         6.847919   -0.533368   -6.563748 H        1 UNL1     0.0429
     90 H         4.293509   0.264598   -7.34261 H        1 UNL1     0.0308
     91 H         6.208854   1.108649   -9.595128 H        1 UNL1     0.0233
     92 H         4.440596   0.946182   -9.744673 H        1 UNL1     0.0233
     93 H         5.128906   2.187539   -8.720043 H        1 UNL1     0.0233
     94 H         4.577678   -1.417647   -9.199502 H        1 UNL1     0.0233
     95 H         6.280872   -1.530297   -8.729642 H        1 UNL1     0.0233
     96 H         5.008216   -1.98202   -7.571935 H        1 UNL1     0.0233
     97 H         4.054201   10.553924   -0.103057 H        1 UNL1     0.0280
     98 H         5.656973   11.183401   -0.371512 H        1 UNL1     0.0280
     99 H         4.469753   11.1796   -1.709505 H        1 UNL1     0.0280
     100 H         6.57715   10.782699   -3.038757 H        1 UNL1     0.2922
     101 H         4.712127   0.92639   2.399658 H        1 UNL1     0.0236
     102 H         6.030954   2.16068   2.456972 H        1 UNL1     0.0236
     103 H         6.323481   0.55148   1.873535 H        1 UNL1     0.0236
     104 H         4.346872   -0.5289   1.234623 H        1 UNL1     0.2098
     105 H         0.690872   1.290238   -0.932079 H        1 UNL1     0.0234
     106 H         1.285214   -0.39178   -1.025201 H        1 UNL1     0.0234
     107 H         0.0   -0.0   0.0 H        1 UNL1     0.0234
     108 H         1.203593   3.260164   1.742152 H        1 UNL1     0.2098
     109 H         1.049567   3.071411   -0.85112 H        1 UNL1     0.0234
     110 H         -0.20615   2.331173   -1.894205 H        1 UNL1     0.0234
     111 H         0.018837   4.04523   -1.87885 H        1 UNL1     0.0234
     112 H         -3.565653   -1.543443   1.486432 H        1 UNL1     0.0342
     113 H         -3.212198   0.094119   2.143469 H        1 UNL1     0.0342
     114 H         -4.41637   -0.116252   0.869231 H        1 UNL1     0.0342
     115 H         -2.640472   1.92024   3.340142 H        1 UNL1     0.0234
     116 H         -1.125976   1.897755   4.249307 H        1 UNL1     0.0234
     117 H         -1.620776   3.278611   3.24828 H        1 UNL1     0.0234
     118 H         0.875771   7.691556   -0.756717 H        1 UNL1     0.0309
     119 H         2.13423   7.808957   -2.025794 H        1 UNL1     0.0309
     120 H         1.393446   6.280673   -1.604202 H        1 UNL1     0.0309
     121 H         -0.324134   6.264251   2.835362 H        1 UNL1     0.0524
     122 H         -2.06521   6.037241   2.625652 H        1 UNL1     0.0524
     123 H         -1.245108   5.312541   4.031349 H        1 UNL1     0.0524
@<TRIPOS>BOND
     1     1     2    1
     2     1    42    1
     3     2     3    2
     4     3     4    1
     5     4     5    2
     6     5     7    1
     7     6    75    1
     8     6    76    1
     9     6    77    1
    10     7     9   am
    11     9    10    1
    12    10    11    2
    13    10    43    1
    14    11    14    1
    15    11    15    1
    16    12    13   ar
    17    12    27   ar
    18    12    43    1
    19    13    14    1
    20    13    30   ar
    21    14    17    2
    22    15    16    1
    23    16    17    1
    24    16    18    1
    25    16    22    1
    26    18    19    1
    27    19    20    1
    28    20    21    1
    29    21    22    1
    30    23    24    1
    31    23    88    1
    32    23    89    1
    33    24    25    1
    34    24    26    1
    35    24    90    1
    36    25    91    1
    37    25    92    1
    38    25    93    1
    39    26    94    1
    40    26    95    1
    41    26    96    1
    42    27    28   ar
    43    28    29   ar
    44    29    30   ar
    45    29    31    1
    46    30    33    1
    47    31    32    1
    48    32    33    1
    49    32    35    1
    50    34    97    1
    51    34    98    1
    52    34    99    1
    53    35    61    1
    54    36    37    1
    55    36    60    1
    56    37    38    1
    57    38    39    1
    58    39    40    1
    59    40    41    1
    60    41    42    1
    61    45   100    1
    62    47   101    1
    63    47   102    1
    64    47   103    1
    65    48   104    1
    66    49   105    1
    67    49   106    1
    68    49   107    1
    69    50   108    1
    70    51    59    1
    71    52   109    1
    72    52   110    1
    73    52   111    1
    74    53    54    1
    75    54    55    2
    76    54    56    1
    77    56   112    1
    78    56   113    1
    79    56   114    1
    80    57   115    1
    81    57   116    1
    82    57   117    1
    83    58   118    1
    84    58   119    1
    85    58   120    1
    86    59   121    1
    87    59   122    1
    88    59   123    1
    89    60    61    2
    90     1    47    1
    91     1    62    1
    92     2    63    1
    93     3    64    1
    94     4    65    1
    95     5     6    1
    96     7     8    2
    97     9    78    1
    98    15    79    1
    99    18    80    1
   100    18    81    1
   101    19    82    1
   102    19    83    1
   103    20    23    1
   104    21    84    1
   105    21    85    1
   106    22    86    1
   107    22    87    1
   108    27    45    1
   109    28    34    1
   110    32    58    1
   111    33    46    2
   112    36    51    1
   113    36    66    1
   114    37    52    1
   115    37    67    1
   116    38    53    1
   117    38    68    1
   118    42    48    1
   119    42    72    1
   120    43    44    2
   121    60    73    1
   122    61    74    1
   123    39    69    1
   124    39    57    1
   125    40    70    1
   126    40    50    1
   127    41    71    1
   128    41    49    1
