@<TRIPOS>MOLECULE
*****
 123 128 0 0 0
SMALL
GASTEIGER

@<TRIPOS>ATOM
     1 C         5.166801   1.749796   0.491579 C.3        1 UNL1     0.0009
     2 C         6.603943   2.554658   -0.359219 C.2        1 UNL1     -0.0787
     3 C         7.886211   2.455504   -1.024052 C.2        1 UNL1     -0.0649
     4 C         8.764038   3.689501   -1.781039 C.2        1 UNL1     -0.0542
     5 C         9.784593   3.980744   -2.719508 C.2        1 UNL1     0.0115
     6 C         10.913321   3.354017   -3.583515 C.3        1 UNL1     -0.0348
     7 C         9.880213   5.463066   -3.32825 C.2        1 UNL1     0.2441
     8 O         10.703839   6.285335   -2.951371 O.2        1 UNL1     -0.2702
     9 N         9.130659   5.668187   -4.499679 N.am        1 UNL1     -0.2772
     10 C         7.847744   6.055291   -4.187264 C.2        1 UNL1     0.1049
     11 C         7.001835   5.08429   -3.894318 C.2        1 UNL1     0.0801
     12 C         6.548461   7.66406   -2.779762 C.ar        1 UNL1     0.0753
     13 C         5.789198   6.536802   -2.330969 C.ar        1 UNL1     0.0305
     14 C         5.906563   5.23011   -2.974268 C.2        1 UNL1     0.0924
     15 N         7.12461   3.755074   -4.051281 N.pl3        1 UNL1     -0.3170
     16 C         5.854597   3.15633   -3.736913 C.3        1 UNL1     0.1275
     17 N         5.217586   4.113048   -2.758838 N.2        1 UNL1     -0.2557
     18 C         5.002477   3.213406   -5.001166 C.3        1 UNL1     0.0016
     19 C         5.758042   2.527605   -6.128281 C.3        1 UNL1     0.0026
     20 N         6.028025   1.150115   -5.740135 N.3        1 UNL1     -0.3018
     21 C         6.790673   0.991674   -4.500121 C.3        1 UNL1     0.0026
     22 C         6.011247   1.683889   -3.380645 C.3        1 UNL1     0.0016
     23 C         6.473211   0.328883   -6.848301 C.3        1 UNL1     0.0012
     24 C         5.318346   0.077833   -7.830653 C.3        1 UNL1     -0.0339
     25 C         5.344527   1.07921   -8.997108 C.3        1 UNL1     -0.0615
     26 C         5.358094   -1.357638   -8.325245 C.3        1 UNL1     -0.0615
     27 C         6.34343   8.932577   -2.242227 C.ar        1 UNL1     0.1347
     28 C         5.383805   9.203565   -1.283199 C.ar        1 UNL1     0.0342
     29 C         4.682031   8.069796   -0.821415 C.ar        1 UNL1     0.1435
     30 C         4.901825   6.786998   -1.324745 C.ar        1 UNL1     0.0774
     31 O         3.640542   8.184635   0.031298 O.3        1 UNL1     -0.4436
     32 C         2.919004   6.951562   -0.109367 C.3        1 UNL1     0.3143
     33 C         3.932653   5.957681   -0.639394 C.2        1 UNL1     0.2504
     34 C         4.93665   10.57033   -0.844898 C.3        1 UNL1     -0.0327
     35 O         2.557632   6.516887   1.207341 O.2        1 UNL1     -0.4528
     36 C         -0.685096   4.583934   0.811748 C.3        1 UNL1     0.0854
     37 C         -0.98983   3.321944   -0.083819 C.3        1 UNL1     0.0236
     38 C         -1.590777   2.062097   0.705732 C.3        1 UNL1     0.1131
     39 C         -0.865738   1.533219   2.008374 C.3        1 UNL1     0.0200
     40 C         0.795437   1.387816   2.050716 C.3        1 UNL1     0.0661
     41 C         1.755508   0.617215   0.883648 C.3        1 UNL1     0.0091
     42 C         3.4634   0.978975   0.320055 C.3        1 UNL1     0.0661
     43 C         7.499152   7.454659   -3.899851 C.2        1 UNL1     0.2131
     44 O         7.899403   8.351637   -4.61955 O.2        1 UNL1     -0.2851
     45 O         7.155911   9.967008   -2.701864 O.3        1 UNL1     -0.5056
     46 O         3.948623   4.754353   -0.506734 O.2        1 UNL1     -0.2836
     47 C         5.562365   1.322578   1.930675 C.3        1 UNL1     -0.0566
     48 O         3.911981   -0.43198   0.404294 O.3        1 UNL1     -0.3909
     49 C         0.922037   0.382654   -0.356432 C.3        1 UNL1     -0.0577
     50 O         1.395357   2.606317   2.441964 O.3        1 UNL1     -0.3910
     51 O         -0.809966   4.396424   2.203394 O.3        1 UNL1     -0.3753
     52 C         0.055286   3.159723   -1.235498 C.3        1 UNL1     -0.0564
     53 O         -2.192823   1.021683   -0.192825 O.3        1 UNL1     -0.4608
     54 C         -2.427367   -0.284548   0.148759 C.2        1 UNL1     0.3042
     55 O         -1.857977   -1.284335   -0.287199 O.2        1 UNL1     -0.2512
     56 C         -3.467986   -0.448567   1.219705 C.3        1 UNL1     0.0332
     57 C         -1.58751   2.204148   3.268165 C.3        1 UNL1     -0.0567
     58 C         1.844412   7.194911   -1.194523 C.3        1 UNL1     0.0210
     59 C         -1.123634   5.57657   2.941455 C.3        1 UNL1     0.0372
     60 C         0.644002   5.212716   0.580901 C.2        1 UNL1     -0.0208
     61 C         1.556427   5.649348   1.450142 C.2        1 UNL1     0.0882
     62 H         4.690789   2.734082   0.577039 H        1 UNL1     0.0365
     63 H         6.33759   3.608609   -0.255713 H        1 UNL1     0.0576
     64 H         8.344032   1.48833   -1.243329 H        1 UNL1     0.0615
     65 H         8.27672   4.605417   -1.435928 H        1 UNL1     0.0622
     66 H         -1.429604   5.329943   0.499938 H        1 UNL1     0.0645
     67 H         -1.855047   3.630314   -0.696083 H        1 UNL1     0.0362
     68 H         -2.538064   2.499481   1.056252 H        1 UNL1     0.0741
     69 H         -1.197328   0.522414   2.205172 H        1 UNL1     0.0359
     70 H         0.906745   0.728871   2.933022 H        1 UNL1     0.0600
     71 H         1.798894   -0.403278   1.312214 H        1 UNL1     0.0348
     72 H         3.356947   1.46871   1.298903 H        1 UNL1     0.0602
     73 H         0.762472   5.408346   -0.455893 H        1 UNL1     0.0628
     74 H         1.53829   5.440361   2.520297 H        1 UNL1     0.1022
     75 H         10.957763   2.248981   -3.42874 H        1 UNL1     0.0279
     76 H         10.80029   3.43511   -4.662272 H        1 UNL1     0.0279
     77 H         11.9182   3.659276   -3.25681 H        1 UNL1     0.0279
     78 H         9.068989   4.797414   -5.023155 H        1 UNL1     0.1553
     79 H         7.790244   3.326144   -4.667627 H        1 UNL1     0.1484
     80 H         4.041107   2.722736   -4.806799 H        1 UNL1     0.0317
     81 H         4.775977   4.249723   -5.273922 H        1 UNL1     0.0317
     82 H         6.688821   3.058557   -6.376579 H        1 UNL1     0.0428
     83 H         5.133386   2.581322   -7.020452 H        1 UNL1     0.0428
     84 H         6.910863   -0.050787   -4.189248 H        1 UNL1     0.0428
     85 H         7.820808   1.359587   -4.603941 H        1 UNL1     0.0428
     86 H         6.527173   1.434974   -2.471882 H        1 UNL1     0.0317
     87 H         5.031752   1.206408   -3.255353 H        1 UNL1     0.0317
     88 H         7.269547   0.869884   -7.375995 H        1 UNL1     0.0429
     89 H         6.90565   -0.616319   -6.495647 H        1 UNL1     0.0429
     90 H         4.365183   0.185337   -7.299488 H        1 UNL1     0.0308
     91 H         6.294937   1.035673   -9.537412 H        1 UNL1     0.0233
     92 H         4.526492   0.882039   -9.693923 H        1 UNL1     0.0233
     93 H         5.216858   2.115332   -8.660972 H        1 UNL1     0.0233
     94 H         4.663435   -1.488179   -9.16205 H        1 UNL1     0.0233
     95 H         6.363069   -1.602919   -8.679964 H        1 UNL1     0.0233
     96 H         5.081813   -2.060138   -7.53396 H        1 UNL1     0.0233
     97 H         4.140797   10.521717   -0.107683 H        1 UNL1     0.0280
     98 H         5.748315   11.13999   -0.373789 H        1 UNL1     0.0280
     99 H         4.566367   11.134604   -1.716437 H        1 UNL1     0.0280
     100 H         6.689024   10.716827   -3.026535 H        1 UNL1     0.2922
     101 H         4.699289   0.889696   2.436015 H        1 UNL1     0.0236
     102 H         6.012787   2.128854   2.508621 H        1 UNL1     0.0236
     103 H         6.31865   0.519941   1.931261 H        1 UNL1     0.0236
     104 H         4.331033   -0.556574   1.278275 H        1 UNL1     0.2098
     105 H         0.70967   1.280572   -0.931286 H        1 UNL1     0.0234
     106 H         1.291826   -0.406384   -1.011109 H        1 UNL1     0.0234
     107 H         0.0   -0.0   0.0 H        1 UNL1     0.0234
     108 H         1.197764   3.263282   1.746893 H        1 UNL1     0.2098
     109 H         1.079914   3.046894   -0.854554 H        1 UNL1     0.0234
     110 H         -0.17674   2.331542   -1.913749 H        1 UNL1     0.0234
     111 H         0.076803   4.041507   -1.88967 H        1 UNL1     0.0234
     112 H         -3.60057   -1.509967   1.45035 H        1 UNL1     0.0342
     113 H         -3.225294   0.118872   2.116899 H        1 UNL1     0.0342
     114 H         -4.422387   -0.066374   0.832133 H        1 UNL1     0.0342
     115 H         -2.657144   1.955884   3.306066 H        1 UNL1     0.0234
     116 H         -1.151575   1.925925   4.229727 H        1 UNL1     0.0234
     117 H         -1.626132   3.305925   3.217777 H        1 UNL1     0.0234
     118 H         0.943087   7.682425   -0.783489 H        1 UNL1     0.0309
     119 H         2.214226   7.781575   -2.041438 H        1 UNL1     0.0309
     120 H         1.45612   6.262264   -1.618204 H        1 UNL1     0.0309
     121 H         -0.302541   6.279556   2.803716 H        1 UNL1     0.0524
     122 H         -2.043251   6.064997   2.578439 H        1 UNL1     0.0524
     123 H         -1.242181   5.340487   3.995166 H        1 UNL1     0.0524
@<TRIPOS>BOND
     1     1     2    1
     2     1    42    1
     3     2     3    2
     4     3     4    1
     5     4     5    2
     6     5     7    1
     7     6    75    1
     8     6    76    1
     9     6    77    1
    10     7     9   am
    11     9    10    1
    12    10    11    2
    13    10    43    1
    14    11    14    1
    15    11    15    1
    16    12    13   ar
    17    12    27   ar
    18    12    43    1
    19    13    14    1
    20    13    30   ar
    21    14    17    2
    22    15    16    1
    23    16    17    1
    24    16    18    1
    25    16    22    1
    26    18    19    1
    27    19    20    1
    28    20    21    1
    29    21    22    1
    30    23    24    1
    31    23    88    1
    32    23    89    1
    33    24    25    1
    34    24    26    1
    35    24    90    1
    36    25    91    1
    37    25    92    1
    38    25    93    1
    39    26    94    1
    40    26    95    1
    41    26    96    1
    42    27    28   ar
    43    28    29   ar
    44    29    30   ar
    45    29    31    1
    46    30    33    1
    47    31    32    1
    48    32    33    1
    49    32    35    1
    50    34    97    1
    51    34    98    1
    52    34    99    1
    53    35    61    1
    54    36    37    1
    55    36    60    1
    56    37    38    1
    57    38    39    1
    58    39    40    1
    59    40    41    1
    60    41    42    1
    61    45   100    1
    62    47   101    1
    63    47   102    1
    64    47   103    1
    65    48   104    1
    66    49   105    1
    67    49   106    1
    68    49   107    1
    69    50   108    1
    70    51    59    1
    71    52   109    1
    72    52   110    1
    73    52   111    1
    74    53    54    1
    75    54    55    2
    76    54    56    1
    77    56   112    1
    78    56   113    1
    79    56   114    1
    80    57   115    1
    81    57   116    1
    82    57   117    1
    83    58   118    1
    84    58   119    1
    85    58   120    1
    86    59   121    1
    87    59   122    1
    88    59   123    1
    89    60    61    2
    90     1    47    1
    91     1    62    1
    92     2    63    1
    93     3    64    1
    94     4    65    1
    95     5     6    1
    96     7     8    2
    97     9    78    1
    98    15    79    1
    99    18    80    1
   100    18    81    1
   101    19    82    1
   102    19    83    1
   103    20    23    1
   104    21    84    1
   105    21    85    1
   106    22    86    1
   107    22    87    1
   108    27    45    1
   109    28    34    1
   110    32    58    1
   111    33    46    2
   112    36    51    1
   113    36    66    1
   114    37    52    1
   115    37    67    1
   116    38    53    1
   117    38    68    1
   118    42    48    1
   119    42    72    1
   120    43    44    2
   121    60    73    1
   122    61    74    1
   123    39    69    1
   124    39    57    1
   125    40    70    1
   126    40    50    1
   127    41    71    1
   128    41    49    1
