@<TRIPOS>MOLECULE
*****
 123 128 0 0 0
SMALL
GASTEIGER

@<TRIPOS>ATOM
     1 C         5.141559   0.54367   1.807778 C.3        1 UNL1     0.0009
     2 C         6.898502   0.92152   1.352347 C.2        1 UNL1     -0.0787
     3 C         8.242423   0.474165   1.052683 C.2        1 UNL1     -0.0649
     4 C         9.557016   1.404985   0.53136 C.2        1 UNL1     -0.0542
     5 C         10.820393   1.373872   -0.108942 C.2        1 UNL1     0.0115
     6 C         11.94173   0.434036   -0.631086 C.3        1 UNL1     -0.0348
     7 C         11.425998   2.738368   -0.699183 C.2        1 UNL1     0.2441
     8 O         12.303237   3.37649   -0.133694 O.2        1 UNL1     -0.2702
     9 N         11.069758   3.013304   -2.030969 N.am        1 UNL1     -0.2772
     10 C         9.884528   3.710762   -2.07682 C.2        1 UNL1     0.1049
     11 C         8.781154   2.989088   -1.999528 C.2        1 UNL1     0.0801
     12 C         8.706684   5.687031   -1.09479 C.ar        1 UNL1     0.0753
     13 C         7.606916   4.806773   -0.841287 C.ar        1 UNL1     0.0305
     14 C         7.559375   3.459633   -1.405205 C.2        1 UNL1     0.0924
     15 N         8.610541   1.659147   -2.092684 N.pl3        1 UNL1     -0.3170
     16 C         7.19575   1.398078   -2.11419 C.3        1 UNL1     0.1275
     17 N         6.586747   2.553696   -1.358289 N.2        1 UNL1     -0.2557
     18 C         6.730673   1.545494   -3.55976 C.3        1 UNL1     0.0016
     19 C         7.554522   0.612784   -4.43321 C.3        1 UNL1     0.0026
     20 N         7.372483   -0.752801   -3.960907 N.3        1 UNL1     -0.3018
     21 C         7.735107   -0.979826   -2.560431 C.3        1 UNL1     0.0026
     22 C         6.892414   -0.036018   -1.700786 C.3        1 UNL1     0.0016
     23 C         7.867829   -1.743545   -4.895627 C.3        1 UNL1     0.0012
     24 C         6.972854   -1.801559   -6.143588 C.3        1 UNL1     -0.0339
     25 C         7.545534   -0.947275   -7.28652 C.3        1 UNL1     -0.0615
     26 C         6.769475   -3.24444   -6.571973 C.3        1 UNL1     -0.0615
     27 C         8.689477   7.008651   -0.655311 C.ar        1 UNL1     0.1347
     28 C         7.615489   7.572437   0.01008 C.ar        1 UNL1     0.0342
     29 C         6.564677   6.673666   0.29145 C.ar        1 UNL1     0.1435
     30 C         6.583589   5.337625   -0.110867 C.ar        1 UNL1     0.0774
     31 O         5.402654   7.096177   0.835687 O.3        1 UNL1     -0.4436
     32 C         4.460951   6.055799   0.532901 C.3        1 UNL1     0.3143
     33 C         5.300524   4.814278   0.309392 C.2        1 UNL1     0.2504
     34 C         7.420642   9.037003   0.287897 C.3        1 UNL1     -0.0327
     35 O         3.684288   5.826946   1.715134 O.2        1 UNL1     -0.4528
     36 C         0.275165   4.669275   0.512734 C.3        1 UNL1     0.0854
     37 C         -0.09303   3.442063   -0.406997 C.3        1 UNL1     0.0236
     38 C         -1.162925   2.424932   0.219511 C.3        1 UNL1     0.1131
     39 C         -0.941916   1.852668   1.677571 C.3        1 UNL1     0.0200
     40 C         0.56714   1.331544   2.160911 C.3        1 UNL1     0.0661
     41 C         1.571791   0.266082   1.304711 C.3        1 UNL1     0.0091
     42 C         3.401425   0.175633   1.206413 C.3        1 UNL1     0.0661
     43 C         9.827982   5.171671   -1.91902 C.2        1 UNL1     0.2131
     44 O         10.603599   5.889167   -2.524295 O.2        1 UNL1     -0.2851
     45 O         9.819099   7.785729   -0.903389 O.3        1 UNL1     -0.5056
     46 O         4.987681   3.655037   0.46477 O.2        1 UNL1     -0.2836
     47 C         5.044553   0.157359   3.308223 C.3        1 UNL1     -0.0566
     48 O         3.455042   -1.288817   1.433629 O.3        1 UNL1     -0.3909
     49 C         1.046742   0.128472   -0.106983 C.3        1 UNL1     -0.0577
     50 O         1.32823   2.406643   2.673383 O.3        1 UNL1     -0.3910
     51 O         -0.238506   4.631616   1.825043 O.3        1 UNL1     -0.3753
     52 C         1.136181   2.948015   -1.237603 C.3        1 UNL1     -0.0564
     53 O         -1.754529   1.480943   -0.786082 O.3        1 UNL1     -0.4608
     54 C         -2.379769   0.297112   -0.493594 C.2        1 UNL1     0.3042
     55 O         -1.981302   -0.839733   -0.743886 O.2        1 UNL1     -0.2512
     56 C         -3.664213   0.467167   0.266667 C.3        1 UNL1     0.0332
     57 C         -1.771217   2.774147   2.688171 C.3        1 UNL1     -0.0567
     58 C         3.787988   6.450012   -0.802482 C.3        1 UNL1     0.0210
     59 C         -0.429604   5.909268   2.430808 C.3        1 UNL1     0.0372
     60 C         1.731565   4.952737   0.629825 C.2        1 UNL1     -0.0208
     61 C         2.473467   5.237286   1.700972 C.2        1 UNL1     0.0882
     62 H         4.915104   1.614888   1.745158 H        1 UNL1     0.0365
     63 H         6.880834   2.013343   1.361277 H        1 UNL1     0.0576
     64 H         8.489773   -0.587346   0.98114 H        1 UNL1     0.0615
     65 H         9.237782   2.434042   0.717408 H        1 UNL1     0.0622
     66 H         -0.160789   5.538605   0.000624 H        1 UNL1     0.0645
     67 H         -0.673294   3.890124   -1.232282 H        1 UNL1     0.0362
     68 H         -2.031229   3.096772   0.298267 H        1 UNL1     0.0741
     69 H         -1.549245   0.965652   1.79907 H        1 UNL1     0.0359
     70 H         0.287703   0.740121   3.053769 H        1 UNL1     0.0600
     71 H         1.254731   -0.697734   1.749108 H        1 UNL1     0.0348
     72 H         3.174741   0.756067   2.112518 H        1 UNL1     0.0602
     73 H         2.151756   5.02914   -0.342209 H        1 UNL1     0.0628
     74 H         2.135534   5.127524   2.731987 H        1 UNL1     0.1022
     75 H         11.674012   -0.634661   -0.448749 H        1 UNL1     0.0279
     76 H         12.12774   0.449397   -1.702643 H        1 UNL1     0.0279
     77 H         12.874855   0.524934   -0.056007 H        1 UNL1     0.0279
     78 H         10.93101   2.140031   -2.535173 H        1 UNL1     0.1553
     79 H         9.284237   1.038536   -2.502449 H        1 UNL1     0.1484
     80 H         5.661547   1.307968   -3.617355 H        1 UNL1     0.0317
     81 H         6.840875   2.57985   -3.902711 H        1 UNL1     0.0317
     82 H         8.61846   0.891958   -4.436488 H        1 UNL1     0.0428
     83 H         7.207773   0.735228   -5.459769 H        1 UNL1     0.0428
     84 H         7.514257   -1.992426   -2.208752 H        1 UNL1     0.0428
     85 H         8.815758   -0.869686   -2.394963 H        1 UNL1     0.0428
     86 H         7.085432   -0.321207   -0.68324 H        1 UNL1     0.0317
     87 H         5.82696   -0.262294   -1.830031 H        1 UNL1     0.0317
     88 H         8.878798   -1.446721   -5.204062 H        1 UNL1     0.0429
     89 H         7.952582   -2.730518   -4.422893 H        1 UNL1     0.0429
     90 H         5.976419   -1.421417   -5.888985 H        1 UNL1     0.0308
     91 H         8.560305   -1.261742   -7.548155 H        1 UNL1     0.0233
     92 H         6.91022   -1.012088   -8.172964 H        1 UNL1     0.0233
     93 H         7.599414   0.116722   -7.026054 H        1 UNL1     0.0233
     94 H         6.298245   -3.28223   -7.560077 H        1 UNL1     0.0233
     95 H         7.734845   -3.75386   -6.639166 H        1 UNL1     0.0233
     96 H         6.133681   -3.784759   -5.865015 H        1 UNL1     0.0233
     97 H         6.474986   9.235433   0.783466 H        1 UNL1     0.0280
     98 H         8.197642   9.439398   0.950925 H        1 UNL1     0.0280
     99 H         7.438046   9.598093   -0.66077 H        1 UNL1     0.0280
     100 H         9.646998   8.594476   -1.352758 H        1 UNL1     0.2922
     101 H         4.003181   -0.021087   3.575351 H        1 UNL1     0.0236
     102 H         5.517765   0.882829   3.969092 H        1 UNL1     0.0236
     103 H         5.556156   -0.795367   3.524482 H        1 UNL1     0.0236
     104 H         3.596188   -1.433997   2.389647 H        1 UNL1     0.2098
     105 H         1.212495   1.000371   -0.734782 H        1 UNL1     0.0234
     106 H         1.365028   -0.776084   -0.625056 H        1 UNL1     0.0234
     107 H         0.0   -0.0   0.0 H        1 UNL1     0.0234
     108 H         1.479187   3.031583   1.938244 H        1 UNL1     0.2098
     109 H         1.971852   2.633537   -0.596924 H        1 UNL1     0.0234
     110 H         0.887378   2.142559   -1.936946 H        1 UNL1     0.0234
     111 H         1.536963   3.743684   -1.879656 H        1 UNL1     0.0234
     112 H         -4.106032   -0.512066   0.474622 H        1 UNL1     0.0342
     113 H         -3.524445   1.03569   1.184867 H        1 UNL1     0.0342
     114 H         -4.366642   1.025833   -0.367092 H        1 UNL1     0.0342
     115 H         -2.842961   2.78366   2.44638 H        1 UNL1     0.0234
     116 H         -1.673573   2.483395   3.736015 H        1 UNL1     0.0234
     117 H         -1.525167   3.846988   2.60808 H        1 UNL1     0.0234
     118 H         2.95972   7.164846   -0.654185 H        1 UNL1     0.0309
     119 H         4.491277   6.863172   -1.532471 H        1 UNL1     0.0309
     120 H         3.303138   5.600463   -1.29573 H        1 UNL1     0.0309
     121 H         0.545843   6.38971   2.501767 H        1 UNL1     0.0524
     122 H         -1.079602   6.565094   1.827955 H        1 UNL1     0.0524
     123 H         -0.864028   5.795068   3.419913 H        1 UNL1     0.0524
@<TRIPOS>BOND
     1     1     2    1
     2     1    42    1
     3     2     3    2
     4     3     4    1
     5     4     5    2
     6     5     7    1
     7     6    75    1
     8     6    76    1
     9     6    77    1
    10     7     9   am
    11     9    10    1
    12    10    11    2
    13    10    43    1
    14    11    14    1
    15    11    15    1
    16    12    13   ar
    17    12    27   ar
    18    12    43    1
    19    13    14    1
    20    13    30   ar
    21    14    17    2
    22    15    16    1
    23    16    17    1
    24    16    18    1
    25    16    22    1
    26    18    19    1
    27    19    20    1
    28    20    21    1
    29    21    22    1
    30    23    24    1
    31    23    88    1
    32    23    89    1
    33    24    25    1
    34    24    26    1
    35    24    90    1
    36    25    91    1
    37    25    92    1
    38    25    93    1
    39    26    94    1
    40    26    95    1
    41    26    96    1
    42    27    28   ar
    43    28    29   ar
    44    29    30   ar
    45    29    31    1
    46    30    33    1
    47    31    32    1
    48    32    33    1
    49    32    35    1
    50    34    97    1
    51    34    98    1
    52    34    99    1
    53    35    61    1
    54    36    37    1
    55    36    60    1
    56    37    38    1
    57    38    39    1
    58    39    40    1
    59    40    41    1
    60    41    42    1
    61    45   100    1
    62    47   101    1
    63    47   102    1
    64    47   103    1
    65    48   104    1
    66    49   105    1
    67    49   106    1
    68    49   107    1
    69    50   108    1
    70    51    59    1
    71    52   109    1
    72    52   110    1
    73    52   111    1
    74    53    54    1
    75    54    55    2
    76    54    56    1
    77    56   112    1
    78    56   113    1
    79    56   114    1
    80    57   115    1
    81    57   116    1
    82    57   117    1
    83    58   118    1
    84    58   119    1
    85    58   120    1
    86    59   121    1
    87    59   122    1
    88    59   123    1
    89    60    61    2
    90     1    47    1
    91     1    62    1
    92     2    63    1
    93     3    64    1
    94     4    65    1
    95     5     6    1
    96     7     8    2
    97     9    78    1
    98    15    79    1
    99    18    80    1
   100    18    81    1
   101    19    82    1
   102    19    83    1
   103    20    23    1
   104    21    84    1
   105    21    85    1
   106    22    86    1
   107    22    87    1
   108    27    45    1
   109    28    34    1
   110    32    58    1
   111    33    46    2
   112    36    51    1
   113    36    66    1
   114    37    52    1
   115    37    67    1
   116    38    53    1
   117    38    68    1
   118    42    48    1
   119    42    72    1
   120    43    44    2
   121    60    73    1
   122    61    74    1
   123    39    69    1
   124    39    57    1
   125    40    70    1
   126    40    50    1
   127    41    71    1
   128    41    49    1
