@<TRIPOS>MOLECULE
*****
 123 128 0 0 0
SMALL
GASTEIGER

@<TRIPOS>ATOM
     1 C         5.116535   1.912768   0.402461 C.3        1 UNL1     0.0009
     2 C         6.557733   2.647751   -0.502959 C.2        1 UNL1     -0.0787
     3 C         7.857919   2.502668   -1.12305 C.2        1 UNL1     -0.0649
     4 C         8.729014   3.661678   -1.997262 C.2        1 UNL1     -0.0542
     5 C         9.766488   3.866893   -2.939925 C.2        1 UNL1     0.0115
     6 C         10.928922   3.171474   -3.700493 C.3        1 UNL1     -0.0348
     7 C         9.847029   5.271453   -3.713044 C.2        1 UNL1     0.2441
     8 O         10.644091   6.150315   -3.415017 O.2        1 UNL1     -0.2702
     9 N         9.122868   5.323541   -4.9168 N.am        1 UNL1     -0.2772
     10 C         7.82495   5.714176   -4.679872 C.2        1 UNL1     0.1049
     11 C         6.99196   4.763889   -4.29607 C.2        1 UNL1     0.0801
     12 C         6.458505   7.443271   -3.496491 C.ar        1 UNL1     0.0753
     13 C         5.711416   6.35767   -2.93798 C.ar        1 UNL1     0.0305
     14 C         5.871364   4.988899   -3.42371 C.2        1 UNL1     0.0924
     15 N         7.145656   3.428634   -4.296108 N.pl3        1 UNL1     -0.3170
     16 C         5.880666   2.840709   -3.943408 C.3        1 UNL1     0.1275
     17 N         5.20013   3.88829   -3.09655 N.2        1 UNL1     -0.2557
     18 C         5.05932   2.732755   -5.224595 C.3        1 UNL1     0.0016
     19 C         5.856543   1.939882   -6.248009 C.3        1 UNL1     0.0026
     20 N         6.144775   0.622586   -5.697846 N.3        1 UNL1     -0.3018
     21 C         6.879364   0.625024   -4.431061 C.3        1 UNL1     0.0026
     22 C         6.058353   1.422841   -3.416506 C.3        1 UNL1     0.0016
     23 C         6.634066   -0.309786   -6.693798 C.3        1 UNL1     0.0012
     24 C         5.508292   -0.701798   -7.663702 C.3        1 UNL1     -0.0339
     25 C         5.53346   0.164143   -8.933965 C.3        1 UNL1     -0.0615
     26 C         5.597286   -2.181566   -7.994079 C.3        1 UNL1     -0.0615
     27 C         6.21435   8.759979   -3.113362 C.ar        1 UNL1     0.1347
     28 C         5.22581   9.116901   -2.213669 C.ar        1 UNL1     0.0342
     29 C         4.53599   8.02765   -1.64022 C.ar        1 UNL1     0.1435
     30 C         4.794339   6.701023   -1.987405 C.ar        1 UNL1     0.0774
     31 O         3.471458   8.215414   -0.829958 O.3        1 UNL1     -0.4436
     32 C         2.778915   6.95801   -0.843802 C.3        1 UNL1     0.3143
     33 C         3.825489   5.933592   -1.232988 C.2        1 UNL1     0.2504
     34 C         4.740127   10.51421   -1.945829 C.3        1 UNL1     -0.0327
     35 O         2.393782   6.66894   0.505777 O.2        1 UNL1     -0.4528
     36 C         -0.798038   4.628996   0.262885 C.3        1 UNL1     0.0854
     37 C         -1.054597   3.265945   -0.487977 C.3        1 UNL1     0.0236
     38 C         -1.64924   2.091392   0.427756 C.3        1 UNL1     0.1131
     39 C         -0.946256   1.732248   1.798558 C.3        1 UNL1     0.0200
     40 C         0.715966   1.631068   1.894574 C.3        1 UNL1     0.0661
     41 C         1.720312   0.75412   0.845831 C.3        1 UNL1     0.0091
     42 C         3.433991   1.088226   0.282732 C.3        1 UNL1     0.0661
     43 C         7.440873   7.128841   -4.563424 C.2        1 UNL1     0.2131
     44 O         7.840576   7.946389   -5.372492 O.2        1 UNL1     -0.2851
     45 O         7.01679   9.753376   -3.670758 O.3        1 UNL1     -0.5056
     46 O         3.862656   4.754102   -0.962295 O.2        1 UNL1     -0.2836
     47 C         5.484745   1.662621   1.889683 C.3        1 UNL1     -0.0566
     48 O         3.908981   -0.293025   0.538944 O.3        1 UNL1     -0.3909
     49 C         0.922943   0.359733   -0.377344 C.3        1 UNL1     -0.0577
     50 O         1.281008   2.899922   2.156222 O.3        1 UNL1     -0.3910
     51 O         -0.953693   4.59945   1.663717 O.3        1 UNL1     -0.3753
     52 C         0.021973   2.99693   -1.589602 C.3        1 UNL1     -0.0564
     53 O         -2.207396   0.941187   -0.358257 O.3        1 UNL1     -0.4608
     54 C         -2.411447   -0.325774   0.122476 C.2        1 UNL1     0.3042
     55 O         -1.807929   -1.350507   -0.193001 O.2        1 UNL1     -0.2512
     56 C         -3.464185   -0.401084   1.191487 C.3        1 UNL1     0.0332
     57 C         -1.712705   2.526345   2.956202 C.3        1 UNL1     -0.0567
     58 C         1.726957   7.050446   -1.973567 C.3        1 UNL1     0.0210
     59 C         -1.347949   5.839431   2.249273 C.3        1 UNL1     0.0372
     60 C         0.523315   5.257694   -0.009007 C.2        1 UNL1     -0.0208
     61 C         1.404718   5.812069   0.824385 C.2        1 UNL1     0.0882
     62 H         4.618591   2.889102   0.363302 H        1 UNL1     0.0365
     63 H         6.267472   3.700184   -0.527522 H        1 UNL1     0.0576
     64 H         8.340667   1.527565   -1.219162 H        1 UNL1     0.0615
     65 H         8.214694   4.599621   -1.770943 H        1 UNL1     0.0622
     66 H         -1.549588   5.316936   -0.149373 H        1 UNL1     0.0645
     67 H         -1.910394   3.482014   -1.150914 H        1 UNL1     0.0362
     68 H         -2.613678   2.544084   0.704255 H        1 UNL1     0.0741
     69 H         -1.261986   0.743286   2.102985 H        1 UNL1     0.0359
     70 H         0.818659   1.080379   2.849172 H        1 UNL1     0.0600
     71 H         1.773786   -0.20923   1.389941 H        1 UNL1     0.0348
     72 H         3.293232   1.684372   1.196029 H        1 UNL1     0.0602
     73 H         0.663567   5.335842   -1.058516 H        1 UNL1     0.0628
     74 H         1.364187   5.726797   1.910812 H        1 UNL1     0.1022
     75 H         10.991994   2.092795   -3.418521 H        1 UNL1     0.0279
     76 H         10.841172   3.125713   -4.783671 H        1 UNL1     0.0279
     77 H         11.918923   3.535308   -3.388686 H        1 UNL1     0.0279
     78 H         9.092008   4.397299   -5.337753 H        1 UNL1     0.1553
     79 H         7.835038   2.947354   -4.843882 H        1 UNL1     0.1484
     80 H         4.103601   2.245533   -4.996599 H        1 UNL1     0.0317
     81 H         4.818623   3.725454   -5.619898 H        1 UNL1     0.0317
     82 H         6.782211   2.46022   -6.534889 H        1 UNL1     0.0428
     83 H         5.253343   1.876508   -7.154201 H        1 UNL1     0.0428
     84 H         7.012982   -0.371861   -3.999579 H        1 UNL1     0.0428
     85 H         7.904057   1.002303   -4.553456 H        1 UNL1     0.0428
     86 H         6.556442   1.291748   -2.473792 H        1 UNL1     0.0317
     87 H         5.08597   0.940378   -3.259033 H        1 UNL1     0.0317
     88 H         7.429946   0.186483   -7.264401 H        1 UNL1     0.0429
     89 H         7.079545   -1.196656   -6.224987 H        1 UNL1     0.0429
     90 H         4.541101   -0.563653   -7.166036 H        1 UNL1     0.0308
     91 H         6.495307   0.086033   -9.449573 H        1 UNL1     0.0233
     92 H         4.734635   -0.130801   -9.618433 H        1 UNL1     0.0233
     93 H         5.373833   1.227447   -8.717771 H        1 UNL1     0.0233
     94 H         4.923849   -2.424649   -8.823072 H        1 UNL1     0.0233
     95 H         6.615668   -2.435162   -8.301567 H        1 UNL1     0.0233
     96 H         5.323958   -2.799551   -7.134222 H        1 UNL1     0.0233
     97 H         3.929357   10.532346   -1.223643 H        1 UNL1     0.0280
     98 H         5.528877   11.153571   -1.528279 H        1 UNL1     0.0280
     99 H         4.377332   10.965003   -2.884051 H        1 UNL1     0.0280
     100 H         6.542959   10.450038   -4.090006 H        1 UNL1     0.2922
     101 H         4.618344   1.270716   2.422051 H        1 UNL1     0.0236
     102 H         5.904112   2.540032   2.380868 H        1 UNL1     0.0236
     103 H         6.256973   0.883029   1.999653 H        1 UNL1     0.0236
     104 H         4.308581   -0.306877   1.430628 H        1 UNL1     0.2098
     105 H         0.707362   1.180531   -1.056776 H        1 UNL1     0.0234
     106 H         1.324505   -0.490884   -0.927913 H        1 UNL1     0.0234
     107 H         0.0   -0.0   0.0 H        1 UNL1     0.0234
     108 H         1.084399   3.46916   1.387404 H        1 UNL1     0.2098
     109 H         1.038879   2.95222   -1.175335 H        1 UNL1     0.0234
     110 H         -0.176166   2.091308   -2.172982 H        1 UNL1     0.0234
     111 H         0.041814   3.798154   -2.34033 H        1 UNL1     0.0234
     112 H         -3.574575   -1.434803   1.532931 H        1 UNL1     0.0342
     113 H         -3.249172   0.265068   2.025666 H        1 UNL1     0.0342
     114 H         -4.421468   -0.087191   0.753029 H        1 UNL1     0.0342
     115 H         -2.772154   2.241146   3.014658 H        1 UNL1     0.0234
     116 H         -1.280558   2.389598   3.949479 H        1 UNL1     0.0234
     117 H         -1.794022   3.610475   2.76649 H        1 UNL1     0.0234
     118 H         0.805928   7.560923   -1.641716 H        1 UNL1     0.0309
     119 H         2.105727   7.544521   -2.873914 H        1 UNL1     0.0309
     120 H         1.368419   6.066654   -2.295606 H        1 UNL1     0.0309
     121 H         -0.561236   6.565264   2.045301 H        1 UNL1     0.0524
     122 H         -2.281793   6.230377   1.812086 H        1 UNL1     0.0524
     123 H         -1.482004   5.723189   3.321006 H        1 UNL1     0.0524
@<TRIPOS>BOND
     1     1     2    1
     2     1    42    1
     3     2     3    2
     4     3     4    1
     5     4     5    2
     6     5     7    1
     7     6    75    1
     8     6    76    1
     9     6    77    1
    10     7     9   am
    11     9    10    1
    12    10    11    2
    13    10    43    1
    14    11    14    1
    15    11    15    1
    16    12    13   ar
    17    12    27   ar
    18    12    43    1
    19    13    14    1
    20    13    30   ar
    21    14    17    2
    22    15    16    1
    23    16    17    1
    24    16    18    1
    25    16    22    1
    26    18    19    1
    27    19    20    1
    28    20    21    1
    29    21    22    1
    30    23    24    1
    31    23    88    1
    32    23    89    1
    33    24    25    1
    34    24    26    1
    35    24    90    1
    36    25    91    1
    37    25    92    1
    38    25    93    1
    39    26    94    1
    40    26    95    1
    41    26    96    1
    42    27    28   ar
    43    28    29   ar
    44    29    30   ar
    45    29    31    1
    46    30    33    1
    47    31    32    1
    48    32    33    1
    49    32    35    1
    50    34    97    1
    51    34    98    1
    52    34    99    1
    53    35    61    1
    54    36    37    1
    55    36    60    1
    56    37    38    1
    57    38    39    1
    58    39    40    1
    59    40    41    1
    60    41    42    1
    61    45   100    1
    62    47   101    1
    63    47   102    1
    64    47   103    1
    65    48   104    1
    66    49   105    1
    67    49   106    1
    68    49   107    1
    69    50   108    1
    70    51    59    1
    71    52   109    1
    72    52   110    1
    73    52   111    1
    74    53    54    1
    75    54    55    2
    76    54    56    1
    77    56   112    1
    78    56   113    1
    79    56   114    1
    80    57   115    1
    81    57   116    1
    82    57   117    1
    83    58   118    1
    84    58   119    1
    85    58   120    1
    86    59   121    1
    87    59   122    1
    88    59   123    1
    89    60    61    2
    90     1    47    1
    91     1    62    1
    92     2    63    1
    93     3    64    1
    94     4    65    1
    95     5     6    1
    96     7     8    2
    97     9    78    1
    98    15    79    1
    99    18    80    1
   100    18    81    1
   101    19    82    1
   102    19    83    1
   103    20    23    1
   104    21    84    1
   105    21    85    1
   106    22    86    1
   107    22    87    1
   108    27    45    1
   109    28    34    1
   110    32    58    1
   111    33    46    2
   112    36    51    1
   113    36    66    1
   114    37    52    1
   115    37    67    1
   116    38    53    1
   117    38    68    1
   118    42    48    1
   119    42    72    1
   120    43    44    2
   121    60    73    1
   122    61    74    1
   123    39    69    1
   124    39    57    1
   125    40    70    1
   126    40    50    1
   127    41    71    1
   128    41    49    1
