@<TRIPOS>MOLECULE
*****
 123 128 0 0 0
SMALL
GASTEIGER

@<TRIPOS>ATOM
     1 C         4.604473   2.829616   0.675435 C.3        1 UNL1     0.0009
     2 C         5.641083   4.205729   -0.009249 C.2        1 UNL1     -0.0787
     3 C         6.824946   4.657778   -0.709368 C.2        1 UNL1     -0.0649
     4 C         7.208882   6.233753   -1.194397 C.2        1 UNL1     -0.0542
     5 C         7.999961   7.01925   -2.06862 C.2        1 UNL1     0.0115
     6 C         9.181497   6.974285   -3.076228 C.3        1 UNL1     -0.0348
     7 C         7.580433   8.545556   -2.33578 C.2        1 UNL1     0.2441
     8 O         8.143827   9.493104   -1.805436 O.2        1 UNL1     -0.2702
     9 N         6.699232   8.733944   -3.414737 N.am        1 UNL1     -0.2772
     10 C         5.394031   8.619749   -2.994344 C.2        1 UNL1     0.1049
     11 C         4.91694   7.391551   -2.904148 C.2        1 UNL1     0.0801
     12 C         3.800397   9.409269   -1.235275 C.ar        1 UNL1     0.0753
     13 C         3.467644   8.032437   -1.029809 C.ar        1 UNL1     0.0305
     14 C         3.919536   6.990592   -1.949268 C.2        1 UNL1     0.0924
     15 N         5.425779   6.231945   -3.35462 N.pl3        1 UNL1     -0.3170
     16 C         4.434854   5.208762   -3.151109 C.3        1 UNL1     0.1275
     17 N         3.628699   5.692948   -1.970685 N.2        1 UNL1     -0.2557
     18 C         3.493233   5.246198   -4.350963 C.3        1 UNL1     0.0016
     19 C         4.314991   5.080873   -5.619415 C.3        1 UNL1     0.0026
     20 N         5.028442   3.812978   -5.552633 N.3        1 UNL1     -0.3018
     21 C         5.91409   3.658074   -4.396778 C.3        1 UNL1     0.0026
     22 C         5.067054   3.823277   -3.133792 C.3        1 UNL1     0.0016
     23 C         5.599345   3.419423   -6.825358 C.3        1 UNL1     0.0012
     24 C         4.491605   3.012634   -7.809833 C.3        1 UNL1     -0.0339
     25 C         4.097139   4.181931   -8.727002 C.3        1 UNL1     -0.0615
     26 C         4.926388   1.796897   -8.609662 C.3        1 UNL1     -0.0615
     27 C         3.267363   10.409258   -0.425327 C.ar        1 UNL1     0.1347
     28 C         2.363754   10.159545   0.592113 C.ar        1 UNL1     0.0342
     29 C         2.088664   8.792388   0.807452 C.ar        1 UNL1     0.1435
     30 C         2.643218   7.77695   0.027339 C.ar        1 UNL1     0.0774
     31 O         1.145485   8.393559   1.688563 O.3        1 UNL1     -0.4436
     32 C         0.826426   7.050343   1.295059 C.3        1 UNL1     0.3143
     33 C         2.042203   6.561023   0.534358 C.2        1 UNL1     0.2504
     34 C         1.562063   11.193385   1.332766 C.3        1 UNL1     -0.0327
     35 O         0.738765   6.265608   2.490785 O.2        1 UNL1     -0.4528
     36 C         -1.778296   3.521938   1.752701 C.3        1 UNL1     0.0854
     37 C         -1.763322   2.438001   0.60711 C.3        1 UNL1     0.0236
     38 C         -1.873998   0.919807   1.111671 C.3        1 UNL1     0.1131
     39 C         -0.904769   0.397252   2.247365 C.3        1 UNL1     0.0200
     40 C         0.717585   0.783925   2.217514 C.3        1 UNL1     0.0661
     41 C         1.755383   0.613426   0.886531 C.3        1 UNL1     0.0091
     42 C         3.210731   1.607426   0.377287 C.3        1 UNL1     0.0661
     43 C         4.661804   9.745815   -2.395867 C.2        1 UNL1     0.2131
     44 O         4.699891   10.849877   -2.908052 O.2        1 UNL1     -0.2851
     45 O         3.67796   11.719324   -0.663182 O.3        1 UNL1     -0.5056
     46 O         2.438053   5.425159   0.396627 O.2        1 UNL1     -0.2836
     47 C         5.243009   2.26841   1.974396 C.3        1 UNL1     -0.0566
     48 O         4.075573   0.427152   0.136207 O.3        1 UNL1     -0.3909
     49 C         0.922964   0.381908   -0.354828 C.3        1 UNL1     -0.0577
     50 O         0.949023   2.024037   2.854917 O.3        1 UNL1     -0.3910
     51 O         -1.710639   3.026272   3.070718 O.3        1 UNL1     -0.3753
     52 C         -0.829813   2.854753   -0.576034 C.3        1 UNL1     -0.0564
     53 O         -2.208843   -0.053221   0.019233 O.3        1 UNL1     -0.4608
     54 C         -1.987478   -1.404891   0.062986 C.2        1 UNL1     0.3042
     55 O         -1.182064   -2.051823   -0.605316 O.2        1 UNL1     -0.2512
     56 C         -2.809534   -2.115664   1.100165 C.3        1 UNL1     0.0332
     57 C         -1.6777   0.53268   3.641069 C.3        1 UNL1     -0.0567
     58 C         -0.366475   7.152946   0.31629 C.3        1 UNL1     0.0210
     59 C         -2.3287   3.854098   4.054878 C.3        1 UNL1     0.0372
     60 C         -0.732871   4.574839   1.635884 C.2        1 UNL1     -0.0208
     61 C         0.078222   5.09383   2.558663 C.2        1 UNL1     0.0882
     62 H         3.859965   3.57171   0.988032 H        1 UNL1     0.0365
     63 H         5.075557   5.075534   0.331468 H        1 UNL1     0.0576
     64 H         7.534617   3.952864   -1.148197 H        1 UNL1     0.0615
     65 H         6.498582   6.856283   -0.643567 H        1 UNL1     0.0622
     66 H         -2.740931   4.038357   1.631498 H        1 UNL1     0.0645
     67 H         -2.734073   2.571682   0.098847 H        1 UNL1     0.0362
     68 H         -2.873078   0.951492   1.572494 H        1 UNL1     0.0741
     69 H         -0.891248   -0.684243   2.222964 H        1 UNL1     0.0359
     70 H         1.10632   0.030434   2.928989 H        1 UNL1     0.0600
     71 H         2.148558   -0.404433   1.077141 H        1 UNL1     0.0348
     72 H         3.05033   1.828352   1.442547 H        1 UNL1     0.0602
     73 H         -0.776299   5.004014   0.665744 H        1 UNL1     0.0628
     74 H         0.223885   4.677526   3.556014 H        1 UNL1     0.1022
     75 H         9.576269   5.934019   -3.171285 H        1 UNL1     0.0279
     76 H         8.949924   7.232089   -4.107237 H        1 UNL1     0.0279
     77 H         10.070299   7.511171   -2.71362 H        1 UNL1     0.0279
     78 H         6.859082   8.014268   -4.116586 H        1 UNL1     0.1553
     79 H         6.130857   6.172159   -4.066114 H        1 UNL1     0.1484
     80 H         2.750561   4.445858   -4.247712 H        1 UNL1     0.0317
     81 H         2.936109   6.188699   -4.381887 H        1 UNL1     0.0317
     82 H         5.011364   5.919687   -5.765598 H        1 UNL1     0.0428
     83 H         3.624286   5.112294   -6.462617 H        1 UNL1     0.0428
     84 H         6.37589   2.668245   -4.327567 H        1 UNL1     0.0428
     85 H         6.767868   4.348336   -4.440574 H        1 UNL1     0.0428
     86 H         5.716044   3.573092   -2.315129 H        1 UNL1     0.0317
     87 H         4.29679   3.043374   -3.094531 H        1 UNL1     0.0317
     88 H         6.136113   4.282508   -7.240398 H        1 UNL1     0.0429
     89 H         6.333918   2.61342   -6.700719 H        1 UNL1     0.0429
     90 H         3.606299   2.69827   -7.244483 H        1 UNL1     0.0308
     91 H         4.958582   4.554403   -9.289392 H        1 UNL1     0.0233
     92 H         3.316176   3.876965   -9.427502 H        1 UNL1     0.0233
     93 H         3.690542   5.032946   -8.16728 H        1 UNL1     0.0233
     94 H         4.229744   1.619653   -9.436165 H        1 UNL1     0.0233
     95 H         5.919252   1.965639   -9.035936 H        1 UNL1     0.0233
     96 H         4.957986   0.899245   -7.98581 H        1 UNL1     0.0233
     97 H         0.893211   10.745185   2.061453 H        1 UNL1     0.0280
     98 H         2.200326   11.886028   1.896789 H        1 UNL1     0.0280
     99 H         0.955553   11.772353   0.617199 H        1 UNL1     0.0280
     100 H         2.976008   12.330433   -0.802579 H        1 UNL1     0.2922
     101 H         4.604498   1.489856   2.391306 H        1 UNL1     0.0236
     102 H         5.476274   3.041329   2.705947 H        1 UNL1     0.0236
     103 H         6.205395   1.766439   1.779376 H        1 UNL1     0.0236
     104 H         4.591497   0.26822   0.950782 H        1 UNL1     0.2098
     105 H         0.712488   1.280991   -0.928553 H        1 UNL1     0.0234
     106 H         1.292382   -0.406652   -1.010291 H        1 UNL1     0.0234
     107 H         0.0   -0.0   0.0 H        1 UNL1     0.0234
     108 H         0.49348   2.709744   2.329509 H        1 UNL1     0.2098
     109 H         0.210732   2.999868   -0.253671 H        1 UNL1     0.0234
     110 H         -0.858711   2.151559   -1.415335 H        1 UNL1     0.0234
     111 H         -1.139862   3.810651   -1.018838 H        1 UNL1     0.0234
     112 H         -2.581967   -3.185881   1.086145 H        1 UNL1     0.0342
     113 H         -2.663437   -1.698159   2.095247 H        1 UNL1     0.0342
     114 H         -3.870053   -1.993431   0.840311 H        1 UNL1     0.0342
     115 H         -2.599017   -0.065743   3.656954 H        1 UNL1     0.0234
     116 H         -1.082385   0.242062   4.508934 H        1 UNL1     0.0234
     117 H         -2.077626   1.544547   3.825799 H        1 UNL1     0.0234
     118 H         -1.331767   7.233429   0.846138 H        1 UNL1     0.0309
     119 H         -0.273958   7.985809   -0.387971 H        1 UNL1     0.0309
     120 H         -0.487926   6.251563   -0.294336 H        1 UNL1     0.0309
     121 H         -1.802495   4.808263   4.060731 H        1 UNL1     0.0524
     122 H         -3.387044   4.060067   3.823528 H        1 UNL1     0.0524
     123 H         -2.266315   3.385634   5.03301 H        1 UNL1     0.0524
@<TRIPOS>BOND
     1     1     2    1
     2     1    42    1
     3     2     3    2
     4     3     4    1
     5     4     5    2
     6     5     7    1
     7     6    75    1
     8     6    76    1
     9     6    77    1
    10     7     9   am
    11     9    10    1
    12    10    11    2
    13    10    43    1
    14    11    14    1
    15    11    15    1
    16    12    13   ar
    17    12    27   ar
    18    12    43    1
    19    13    14    1
    20    13    30   ar
    21    14    17    2
    22    15    16    1
    23    16    17    1
    24    16    18    1
    25    16    22    1
    26    18    19    1
    27    19    20    1
    28    20    21    1
    29    21    22    1
    30    23    24    1
    31    23    88    1
    32    23    89    1
    33    24    25    1
    34    24    26    1
    35    24    90    1
    36    25    91    1
    37    25    92    1
    38    25    93    1
    39    26    94    1
    40    26    95    1
    41    26    96    1
    42    27    28   ar
    43    28    29   ar
    44    29    30   ar
    45    29    31    1
    46    30    33    1
    47    31    32    1
    48    32    33    1
    49    32    35    1
    50    34    97    1
    51    34    98    1
    52    34    99    1
    53    35    61    1
    54    36    37    1
    55    36    60    1
    56    37    38    1
    57    38    39    1
    58    39    40    1
    59    40    41    1
    60    41    42    1
    61    45   100    1
    62    47   101    1
    63    47   102    1
    64    47   103    1
    65    48   104    1
    66    49   105    1
    67    49   106    1
    68    49   107    1
    69    50   108    1
    70    51    59    1
    71    52   109    1
    72    52   110    1
    73    52   111    1
    74    53    54    1
    75    54    55    2
    76    54    56    1
    77    56   112    1
    78    56   113    1
    79    56   114    1
    80    57   115    1
    81    57   116    1
    82    57   117    1
    83    58   118    1
    84    58   119    1
    85    58   120    1
    86    59   121    1
    87    59   122    1
    88    59   123    1
    89    60    61    2
    90     1    47    1
    91     1    62    1
    92     2    63    1
    93     3    64    1
    94     4    65    1
    95     5     6    1
    96     7     8    2
    97     9    78    1
    98    15    79    1
    99    18    80    1
   100    18    81    1
   101    19    82    1
   102    19    83    1
   103    20    23    1
   104    21    84    1
   105    21    85    1
   106    22    86    1
   107    22    87    1
   108    27    45    1
   109    28    34    1
   110    32    58    1
   111    33    46    2
   112    36    51    1
   113    36    66    1
   114    37    52    1
   115    37    67    1
   116    38    53    1
   117    38    68    1
   118    42    48    1
   119    42    72    1
   120    43    44    2
   121    60    73    1
   122    61    74    1
   123    39    69    1
   124    39    57    1
   125    40    70    1
   126    40    50    1
   127    41    71    1
   128    41    49    1
