@<TRIPOS>MOLECULE
*****
 123 128 0 0 0
SMALL
GASTEIGER

@<TRIPOS>ATOM
     1 C         4.095905   -0.557499   -0.940086 C.3        1 UNL1     0.0009
     2 C         5.311392   0.723189   -1.505302 C.2        1 UNL1     -0.0787
     3 C         6.09993   1.32855   -2.557819 C.2        1 UNL1     -0.0649
     4 C         7.055366   2.723529   -2.471036 C.2        1 UNL1     -0.0542
     5 C         7.682035   3.750005   -3.219843 C.2        1 UNL1     0.0115
     6 C         8.055263   4.208483   -4.656444 C.3        1 UNL1     -0.0348
     7 C         8.137718   5.092863   -2.467464 C.2        1 UNL1     0.2441
     8 O         9.298626   5.319476   -2.155272 O.2        1 UNL1     -0.2702
     9 N         7.161985   6.103924   -2.424408 N.am        1 UNL1     -0.2772
     10 C         6.359668   5.950151   -1.317176 C.2        1 UNL1     0.1049
     11 C         5.366524   5.087369   -1.433338 C.2        1 UNL1     0.0801
     12 C         6.441082   5.582272   1.155752 C.ar        1 UNL1     0.0753
     13 C         5.514624   4.511246   0.94794 C.ar        1 UNL1     0.0305
     14 C         4.847361   4.31525   -0.337127 C.2        1 UNL1     0.0924
     15 N         4.873718   4.479491   -2.526112 N.pl3        1 UNL1     -0.3170
     16 C         3.684048   3.770593   -2.135722 C.3        1 UNL1     0.1275
     17 N         3.897954   3.448041   -0.67698 N.2        1 UNL1     -0.2557
     18 C         2.528384   4.765466   -2.184406 C.3        1 UNL1     0.0016
     19 C         2.468467   5.373545   -3.576613 C.3        1 UNL1     0.0026
     20 N         2.280041   4.303685   -4.546625 N.3        1 UNL1     -0.3018
     21 C         3.31087   3.263694   -4.533274 C.3        1 UNL1     0.0026
     22 C         3.350597   2.663367   -3.126887 C.3        1 UNL1     0.0016
     23 C         1.91248   4.792214   -5.860734 C.3        1 UNL1     0.0012
     24 C         0.482496   5.354951   -5.845612 C.3        1 UNL1     -0.0339
     25 C         0.482753   6.892199   -5.876064 C.3        1 UNL1     -0.0615
     26 C         -0.318317   4.773158   -6.997565 C.3        1 UNL1     -0.0615
     27 C         6.980576   5.835866   2.414622 C.ar        1 UNL1     0.1347
     28 C         6.639959   5.114278   3.544817 C.ar        1 UNL1     0.0342
     29 C         5.763774   4.034057   3.306935 C.ar        1 UNL1     0.1435
     30 C         5.243453   3.745639   2.044675 C.ar        1 UNL1     0.0774
     31 O         5.25231   3.304662   4.322511 O.3        1 UNL1     -0.4436
     32 C         4.097613   2.661921   3.761768 C.3        1 UNL1     0.3143
     33 C         4.34891   2.629046   2.267787 C.2        1 UNL1     0.2504
     34 C         6.979984   5.483034   4.962033 C.3        1 UNL1     -0.0327
     35 O         4.103974   1.302884   4.215895 O.2        1 UNL1     -0.4528
     36 C         0.461719   0.250241   4.400307 C.3        1 UNL1     0.0854
     37 C         -0.633677   0.248946   3.26557 C.3        1 UNL1     0.0236
     38 C         -1.355802   -1.162561   3.024892 C.3        1 UNL1     0.1131
     39 C         -0.483277   -2.465811   2.818709 C.3        1 UNL1     0.0200
     40 C         0.864084   -2.43375   1.835842 C.3        1 UNL1     0.0661
     41 C         0.926344   -1.822246   0.254768 C.3        1 UNL1     0.0091
     42 C         2.294936   -1.00267   -0.651132 C.3        1 UNL1     0.0661
     43 C         6.739845   6.470079   0.004752 C.2        1 UNL1     0.2131
     44 O         7.172863   7.602054   0.122502 O.2        1 UNL1     -0.2851
     45 O         7.910034   6.868339   2.522078 O.3        1 UNL1     -0.5056
     46 O         3.924253   1.844412   1.44933 O.2        1 UNL1     -0.2836
     47 C         4.783986   -1.94518   -0.83585 C.3        1 UNL1     -0.0566
     48 O         2.130596   -1.82561   -1.873784 O.3        1 UNL1     -0.3909
     49 C         -0.322805   -1.009655   -0.00372 C.3        1 UNL1     -0.0577
     50 O         2.003327   -2.016032   2.560659 O.3        1 UNL1     -0.3910
     51 O         0.793651   -1.010153   4.937577 O.3        1 UNL1     -0.3753
     52 C         -0.24841   1.197712   2.083892 C.3        1 UNL1     -0.0564
     53 O         -2.611536   -1.06334   2.20904 O.3        1 UNL1     -0.4608
     54 C         -3.028663   -1.977513   1.277255 C.2        1 UNL1     0.3042
     55 O         -4.062554   -2.644269   1.295828 O.2        1 UNL1     -0.2512
     56 C         -2.10742   -2.095953   0.096578 C.3        1 UNL1     0.0332
     57 C         -0.352244   -3.188271   4.239644 C.3        1 UNL1     -0.0567
     58 C         2.897013   3.594498   4.0453 C.3        1 UNL1     0.0210
     59 C         0.314103   -1.242669   6.261146 C.3        1 UNL1     0.0372
     60 C         1.743752   0.912686   4.036001 C.2        1 UNL1     -0.0208
     61 C         3.004228   0.525628   4.236325 C.2        1 UNL1     0.0882
     62 H         4.127127   -0.116539   0.063553 H        1 UNL1     0.0365
     63 H         5.552953   1.207277   -0.556736 H        1 UNL1     0.0576
     64 H         6.011139   1.005567   -3.597485 H        1 UNL1     0.0615
     65 H         7.145051   2.911616   -1.397694 H        1 UNL1     0.0622
     66 H         0.025518   0.859603   5.20433 H        1 UNL1     0.0645
     67 H         -1.458604   0.8482   3.688594 H        1 UNL1     0.0362
     68 H         -1.842788   -1.289324   4.003819 H        1 UNL1     0.0741
     69 H         -1.097376   -3.22594   2.354495 H        1 UNL1     0.0359
     70 H         1.015472   -3.519654   1.684333 H        1 UNL1     0.0600
     71 H         0.707549   -2.744744   -0.318018 H        1 UNL1     0.0348
     72 H         2.764327   -1.541117   0.184968 H        1 UNL1     0.0602
     73 H         1.540384   1.885443   3.662323 H        1 UNL1     0.0628
     74 H         3.298463   -0.473083   4.560734 H        1 UNL1     0.1022
     75 H         8.521355   3.369332   -5.227072 H        1 UNL1     0.0279
     76 H         7.230212   4.50098   -5.302049 H        1 UNL1     0.0279
     77 H         8.863723   4.954105   -4.668315 H        1 UNL1     0.0279
     78 H         6.565332   6.038694   -3.246495 H        1 UNL1     0.1553
     79 H         5.030484   4.804272   -3.462528 H        1 UNL1     0.1484
     80 H         1.596635   4.24362   -1.934835 H        1 UNL1     0.0317
     81 H         2.657653   5.552429   -1.433652 H        1 UNL1     0.0317
     82 H         3.371052   5.959641   -3.804083 H        1 UNL1     0.0428
     83 H         1.63884   6.081092   -3.588694 H        1 UNL1     0.0428
     84 H         3.104154   2.432434   -5.214513 H        1 UNL1     0.0428
     85 H         4.283852   3.648211   -4.869084 H        1 UNL1     0.0428
     86 H         4.016336   1.822628   -3.18964 H        1 UNL1     0.0317
     87 H         2.383581   2.204087   -2.88806 H        1 UNL1     0.0317
     88 H         2.603727   5.601553   -6.129884 H        1 UNL1     0.0429
     89 H         2.021885   4.009283   -6.622196 H        1 UNL1     0.0429
     90 H         -0.024129   5.023898   -4.931311 H        1 UNL1     0.0308
     91 H         -0.462012   7.282434   -6.26624 H        1 UNL1     0.0233
     92 H         0.65292   7.298345   -4.876215 H        1 UNL1     0.0233
     93 H         1.280456   7.297205   -6.510473 H        1 UNL1     0.0233
     94 H         -0.254522   3.679692   -6.987643 H        1 UNL1     0.0233
     95 H         -1.371518   5.050317   -6.898006 H        1 UNL1     0.0233
     96 H         0.051509   5.132151   -7.962096 H        1 UNL1     0.0233
     97 H         6.092507   5.599305   5.576928 H        1 UNL1     0.0280
     98 H         7.588593   4.71382   5.455147 H        1 UNL1     0.0280
     99 H         7.534886   6.435435   4.972563 H        1 UNL1     0.0280
     100 H         8.599496   6.842649   1.882075 H        1 UNL1     0.2922
     101 H         5.757138   -1.837996   -0.357162 H        1 UNL1     0.0236
     102 H         4.853421   -2.462131   -1.792367 H        1 UNL1     0.0236
     103 H         4.225463   -2.63636   -0.182768 H        1 UNL1     0.0236
     104 H         1.327872   -2.370527   -1.756862 H        1 UNL1     0.2098
     105 H         -0.794748   -1.204536   -0.963461 H        1 UNL1     0.0234
     106 H         -1.062999   -1.045719   0.795492 H        1 UNL1     0.0234
     107 H         0.0   0.0   0.0 H        1 UNL1     0.0234
     108 H         2.764213   -2.048808   1.949311 H        1 UNL1     0.2098
     109 H         -0.143393   2.242879   2.406861 H        1 UNL1     0.0234
     110 H         0.659785   0.883604   1.558286 H        1 UNL1     0.0234
     111 H         -1.019629   1.204239   1.302146 H        1 UNL1     0.0234
     112 H         -1.961089   -3.150294   -0.156992 H        1 UNL1     0.0342
     113 H         -2.469152   -1.533907   -0.76313 H        1 UNL1     0.0342
     114 H         -1.131159   -1.679095   0.379965 H        1 UNL1     0.0342
     115 H         -0.326859   -4.282242   4.140789 H        1 UNL1     0.0234
     116 H         0.52958   -2.889557   4.809912 H        1 UNL1     0.0234
     117 H         -1.237122   -3.053113   4.885139 H        1 UNL1     0.0234
     118 H         2.204552   3.164174   4.78983 H        1 UNL1     0.0309
     119 H         3.197895   4.59489   4.372237 H        1 UNL1     0.0309
     120 H         2.261818   3.741458   3.164938 H        1 UNL1     0.0309
     121 H         1.000598   -0.753017   6.951307 H        1 UNL1     0.0524
     122 H         -0.686766   -0.80992   6.425549 H        1 UNL1     0.0524
     123 H         0.274968   -2.309009   6.464812 H        1 UNL1     0.0524
@<TRIPOS>BOND
     1     1     2    1
     2     1    42    1
     3     2     3    2
     4     3     4    1
     5     4     5    2
     6     5     7    1
     7     6    75    1
     8     6    76    1
     9     6    77    1
    10     7     9   am
    11     9    10    1
    12    10    11    2
    13    10    43    1
    14    11    14    1
    15    11    15    1
    16    12    13   ar
    17    12    27   ar
    18    12    43    1
    19    13    14    1
    20    13    30   ar
    21    14    17    2
    22    15    16    1
    23    16    17    1
    24    16    18    1
    25    16    22    1
    26    18    19    1
    27    19    20    1
    28    20    21    1
    29    21    22    1
    30    23    24    1
    31    23    88    1
    32    23    89    1
    33    24    25    1
    34    24    26    1
    35    24    90    1
    36    25    91    1
    37    25    92    1
    38    25    93    1
    39    26    94    1
    40    26    95    1
    41    26    96    1
    42    27    28   ar
    43    28    29   ar
    44    29    30   ar
    45    29    31    1
    46    30    33    1
    47    31    32    1
    48    32    33    1
    49    32    35    1
    50    34    97    1
    51    34    98    1
    52    34    99    1
    53    35    61    1
    54    36    37    1
    55    36    60    1
    56    37    38    1
    57    38    39    1
    58    39    40    1
    59    40    41    1
    60    41    42    1
    61    45   100    1
    62    47   101    1
    63    47   102    1
    64    47   103    1
    65    48   104    1
    66    49   105    1
    67    49   106    1
    68    49   107    1
    69    50   108    1
    70    51    59    1
    71    52   109    1
    72    52   110    1
    73    52   111    1
    74    53    54    1
    75    54    55    2
    76    54    56    1
    77    56   112    1
    78    56   113    1
    79    56   114    1
    80    57   115    1
    81    57   116    1
    82    57   117    1
    83    58   118    1
    84    58   119    1
    85    58   120    1
    86    59   121    1
    87    59   122    1
    88    59   123    1
    89    60    61    2
    90     1    47    1
    91     1    62    1
    92     2    63    1
    93     3    64    1
    94     4    65    1
    95     5     6    1
    96     7     8    2
    97     9    78    1
    98    15    79    1
    99    18    80    1
   100    18    81    1
   101    19    82    1
   102    19    83    1
   103    20    23    1
   104    21    84    1
   105    21    85    1
   106    22    86    1
   107    22    87    1
   108    27    45    1
   109    28    34    1
   110    32    58    1
   111    33    46    2
   112    36    51    1
   113    36    66    1
   114    37    52    1
   115    37    67    1
   116    38    53    1
   117    38    68    1
   118    42    48    1
   119    42    72    1
   120    43    44    2
   121    60    73    1
   122    61    74    1
   123    39    69    1
   124    39    57    1
   125    40    70    1
   126    40    50    1
   127    41    71    1
   128    41    49    1
