@<TRIPOS>MOLECULE
*****
 123 128 0 0 0
SMALL
GASTEIGER

@<TRIPOS>ATOM
     1 C         0.448073   0.177244   -4.161819 C.3        1 UNL1     0.0009
     2 C         -0.252642   -0.990807   -5.419473 C.2        1 UNL1     -0.0787
     3 C         -0.081504   -2.092033   -6.343626 C.2        1 UNL1     -0.0649
     4 C         -1.273011   -2.889995   -7.243584 C.2        1 UNL1     -0.0542
     5 C         -1.594524   -4.073633   -7.952604 C.2        1 UNL1     0.0115
     6 C         -1.00852   -5.392558   -8.52737 C.3        1 UNL1     -0.0348
     7 C         -3.135831   -4.400879   -8.25964 C.2        1 UNL1     0.2441
     8 O         -3.649314   -4.218933   -9.354974 O.2        1 UNL1     -0.2702
     9 N         -3.787716   -5.151933   -7.266103 N.am        1 UNL1     -0.2772
     10 C         -4.324047   -4.320384   -6.309966 C.2        1 UNL1     0.1049
     11 C         -3.497288   -3.910329   -5.36522 C.2        1 UNL1     0.0801
     12 C         -5.726803   -2.268726   -6.026577 C.ar        1 UNL1     0.0753
     13 C         -4.694176   -1.776743   -5.166202 C.ar        1 UNL1     0.0305
     14 C         -3.607941   -2.638108   -4.704473 C.2        1 UNL1     0.0924
     15 N         -2.259989   -4.334759   -5.056222 N.pl3        1 UNL1     -0.3170
     16 C         -1.862767   -3.681049   -3.837562 C.3        1 UNL1     0.1275
     17 N         -2.632813   -2.383069   -3.836713 N.2        1 UNL1     -0.2557
     18 C         -2.41977   -4.504652   -2.680356 C.3        1 UNL1     0.0016
     19 C         -1.921438   -5.934542   -2.816983 C.3        1 UNL1     0.0026
     20 N         -0.465179   -5.925948   -2.800715 N.3        1 UNL1     -0.3018
     21 C         0.16339   -5.109033   -3.840869 C.3        1 UNL1     0.0026
     22 C         -0.347737   -3.676065   -3.681978 C.3        1 UNL1     0.0016
     23 C         0.104626   -7.246861   -2.62421 C.3        1 UNL1     0.0012
     24 C         -0.146796   -7.755463   -1.195971 C.3        1 UNL1     -0.0339
     25 C         1.020165   -8.621572   -0.693861 C.3        1 UNL1     -0.0615
     26 C         -0.414741   -6.584968   -0.265957 C.3        1 UNL1     -0.0615
     27 C         -6.822337   -1.477769   -6.364675 C.ar        1 UNL1     0.1347
     28 C         -7.013992   -0.198433   -5.874148 C.ar        1 UNL1     0.0342
     29 C         -5.960415   0.28279   -5.068193 C.ar        1 UNL1     0.1435
     30 C         -4.839429   -0.48505   -4.750336 C.ar        1 UNL1     0.0774
     31 O         -6.049017   1.468134   -4.42623 O.3        1 UNL1     -0.4436
     32 C         -5.065089   1.390419   -3.383772 C.3        1 UNL1     0.3143
     33 C         -4.066899   0.353484   -3.857686 C.2        1 UNL1     0.2504
     34 C         -8.276396   0.609846   -5.988688 C.3        1 UNL1     -0.0327
     35 O         -4.377742   2.647324   -3.352217 O.2        1 UNL1     -0.4528
     36 C         -3.299215   3.153416   0.251772 C.3        1 UNL1     0.0854
     37 C         -2.405405   2.227607   1.163641 C.3        1 UNL1     0.0236
     38 C         -1.126134   2.947403   1.809476 C.3        1 UNL1     0.1131
     39 C         -0.138789   3.769697   0.886842 C.3        1 UNL1     0.0200
     40 C         0.338109   3.163068   -0.592011 C.3        1 UNL1     0.0661
     41 C         0.94634   1.605497   -0.877736 C.3        1 UNL1     0.0091
     42 C         0.793401   0.519501   -2.348323 C.3        1 UNL1     0.0661
     43 C         -5.637676   -3.680501   -6.475138 C.2        1 UNL1     0.2131
     44 O         -6.595648   -4.326185   -6.86 O.2        1 UNL1     -0.2851
     45 O         -7.759697   -2.015931   -7.243979 O.3        1 UNL1     -0.5056
     46 O         -2.892873   0.254984   -3.578732 O.2        1 UNL1     -0.2836
     47 C         1.310441   1.264697   -4.857339 C.3        1 UNL1     -0.0566
     48 O         2.236114   0.178774   -2.388336 O.3        1 UNL1     -0.3909
     49 C         0.674681   0.745244   0.336209 C.3        1 UNL1     -0.0577
     50 O         -0.589783   3.511773   -1.599555 O.3        1 UNL1     -0.3910
     51 O         -2.778555   4.434214   -0.023729 O.3        1 UNL1     -0.3753
     52 C         -2.350501   0.760216   0.626334 C.3        1 UNL1     -0.0564
     53 O         -0.501034   2.169019   2.930054 O.3        1 UNL1     -0.4608
     54 C         0.842938   2.077428   3.181606 C.2        1 UNL1     0.3042
     55 O         1.591263   1.139138   2.910573 O.2        1 UNL1     -0.2512
     56 C         1.42274   3.312683   3.80985 C.3        1 UNL1     0.0332
     57 C         -0.581284   5.305189   0.954938 C.3        1 UNL1     -0.0567
     58 C         -5.794485   0.845918   -2.13356 C.3        1 UNL1     0.0210
     59 C         -2.927544   4.863595   -1.376245 C.3        1 UNL1     0.0372
     60 C         -3.690998   2.55907   -1.055293 C.2        1 UNL1     -0.0208
     61 C         -3.692614   3.087959   -2.279637 C.2        1 UNL1     0.0882
     62 H         -0.552436   0.607103   -4.031763 H        1 UNL1     0.0365
     63 H         -1.272671   -0.610337   -5.504628 H        1 UNL1     0.0576
     64 H         0.863836   -2.633952   -6.419557 H        1 UNL1     0.0615
     65 H         -2.142495   -2.231559   -7.166496 H        1 UNL1     0.0622
     66 H         -4.233073   3.279313   0.817551 H        1 UNL1     0.0645
     67 H         -3.029598   2.047265   2.056064 H        1 UNL1     0.0362
     68 H         -1.633474   3.697426   2.43525 H        1 UNL1     0.0741
     69 H         0.801782   3.893347   1.406886 H        1 UNL1     0.0359
     70 H         1.215605   3.808309   -0.788798 H        1 UNL1     0.0600
     71 H         2.031545   1.798698   -0.768374 H        1 UNL1     0.0348
     72 H         0.569222   1.537549   -2.698519 H        1 UNL1     0.0602
     73 H         -4.126658   1.605291   -0.888696 H        1 UNL1     0.0628
     74 H         -3.215678   4.032343   -2.544039 H        1 UNL1     0.1022
     75 H         -0.067121   -5.18965   -9.092729 H        1 UNL1     0.0279
     76 H         -0.690312   -6.138472   -7.802508 H        1 UNL1     0.0279
     77 H         -1.641642   -5.833052   -9.311477 H        1 UNL1     0.0279
     78 H         -3.116601   -5.760112   -6.801561 H        1 UNL1     0.1553
     79 H         -1.886683   -5.220371   -5.344782 H        1 UNL1     0.1484
     80 H         -2.095291   -4.056158   -1.733607 H        1 UNL1     0.0317
     81 H         -3.514873   -4.484861   -2.677495 H        1 UNL1     0.0317
     82 H         -2.304261   -6.413607   -3.73014 H        1 UNL1     0.0428
     83 H         -2.331805   -6.504672   -1.982956 H        1 UNL1     0.0428
     84 H         1.253362   -5.055556   -3.757718 H        1 UNL1     0.0428
     85 H         -0.007661   -5.522465   -4.844428 H        1 UNL1     0.0428
     86 H         0.229761   -3.084893   -4.368273 H        1 UNL1     0.0317
     87 H         -0.057573   -3.281387   -2.700586 H        1 UNL1     0.0317
     88 H         -0.388222   -7.928481   -3.329752 H        1 UNL1     0.0429
     89 H         1.175599   -7.254516   -2.864487 H        1 UNL1     0.0429
     90 H         -1.060694   -8.36119   -1.186065 H        1 UNL1     0.0308
     91 H         1.984893   -8.151978   -0.908064 H        1 UNL1     0.0233
     92 H         0.937052   -8.795923   0.381455 H        1 UNL1     0.0233
     93 H         1.037293   -9.61235   -1.163861 H        1 UNL1     0.0233
     94 H         -0.211324   -6.872428   0.771263 H        1 UNL1     0.0233
     95 H         0.242708   -5.748519   -0.519091 H        1 UNL1     0.0233
     96 H         -1.453711   -6.25058   -0.334464 H        1 UNL1     0.0233
     97 H         -9.084436   0.041727   -6.439846 H        1 UNL1     0.0280
     98 H         -8.649062   0.936339   -5.009005 H        1 UNL1     0.0280
     99 H         -8.089617   1.499652   -6.61195 H        1 UNL1     0.0280
     100 H         -7.392785   -2.39701   -8.022296 H        1 UNL1     0.2922
     101 H         0.76287   2.206554   -4.884296 H        1 UNL1     0.0236
     102 H         1.660933   0.96697   -5.845012 H        1 UNL1     0.0236
     103 H         2.228521   1.490874   -4.289742 H        1 UNL1     0.0236
     104 H         2.736227   0.985226   -2.154898 H        1 UNL1     0.2098
     105 H         1.552076   0.243546   0.736568 H        1 UNL1     0.0234
     106 H         0.127802   1.245244   1.135489 H        1 UNL1     0.0234
     107 H         -0.0   0.0   0.0 H        1 UNL1     0.0234
     108 H         -0.395736   2.954833   -2.377972 H        1 UNL1     0.2098
     109 H         -3.344068   0.29174   0.593678 H        1 UNL1     0.0234
     110 H         -1.87482   0.679453   -0.357001 H        1 UNL1     0.0234
     111 H         -1.738981   0.115548   1.271618 H        1 UNL1     0.0234
     112 H         2.498103   3.18197   3.964303 H        1 UNL1     0.0342
     113 H         1.218255   4.205938   3.221527 H        1 UNL1     0.0342
     114 H         0.955105   3.448517   4.794751 H        1 UNL1     0.0342
     115 H         0.279742   5.982467   0.870581 H        1 UNL1     0.0234
     116 H         -1.302481   5.593808   0.187719 H        1 UNL1     0.0234
     117 H         -0.990544   5.601976   1.93594 H        1 UNL1     0.0234
     118 H         -5.293171   1.147079   -1.197082 H        1 UNL1     0.0309
     119 H         -6.847303   1.141973   -2.087423 H        1 UNL1     0.0309
     120 H         -5.784802   -0.248437   -2.084575 H        1 UNL1     0.0309
     121 H         -2.13685   5.584501   -1.582289 H        1 UNL1     0.0524
     122 H         -2.815157   4.033557   -2.093493 H        1 UNL1     0.0524
     123 H         -3.901063   5.323884   -1.51938 H        1 UNL1     0.0524
@<TRIPOS>BOND
     1     1     2    1
     2     1    42    1
     3     2     3    2
     4     3     4    1
     5     4     5    2
     6     5     7    1
     7     6    75    1
     8     6    76    1
     9     6    77    1
    10     7     9   am
    11     9    10    1
    12    10    11    2
    13    10    43    1
    14    11    14    1
    15    11    15    1
    16    12    13   ar
    17    12    27   ar
    18    12    43    1
    19    13    14    1
    20    13    30   ar
    21    14    17    2
    22    15    16    1
    23    16    17    1
    24    16    18    1
    25    16    22    1
    26    18    19    1
    27    19    20    1
    28    20    21    1
    29    21    22    1
    30    23    24    1
    31    23    88    1
    32    23    89    1
    33    24    25    1
    34    24    26    1
    35    24    90    1
    36    25    91    1
    37    25    92    1
    38    25    93    1
    39    26    94    1
    40    26    95    1
    41    26    96    1
    42    27    28   ar
    43    28    29   ar
    44    29    30   ar
    45    29    31    1
    46    30    33    1
    47    31    32    1
    48    32    33    1
    49    32    35    1
    50    34    97    1
    51    34    98    1
    52    34    99    1
    53    35    61    1
    54    36    37    1
    55    36    60    1
    56    37    38    1
    57    38    39    1
    58    39    40    1
    59    40    41    1
    60    41    42    1
    61    45   100    1
    62    47   101    1
    63    47   102    1
    64    47   103    1
    65    48   104    1
    66    49   105    1
    67    49   106    1
    68    49   107    1
    69    50   108    1
    70    51    59    1
    71    52   109    1
    72    52   110    1
    73    52   111    1
    74    53    54    1
    75    54    55    2
    76    54    56    1
    77    56   112    1
    78    56   113    1
    79    56   114    1
    80    57   115    1
    81    57   116    1
    82    57   117    1
    83    58   118    1
    84    58   119    1
    85    58   120    1
    86    59   121    1
    87    59   122    1
    88    59   123    1
    89    60    61    2
    90     1    47    1
    91     1    62    1
    92     2    63    1
    93     3    64    1
    94     4    65    1
    95     5     6    1
    96     7     8    2
    97     9    78    1
    98    15    79    1
    99    18    80    1
   100    18    81    1
   101    19    82    1
   102    19    83    1
   103    20    23    1
   104    21    84    1
   105    21    85    1
   106    22    86    1
   107    22    87    1
   108    27    45    1
   109    28    34    1
   110    32    58    1
   111    33    46    2
   112    36    51    1
   113    36    66    1
   114    37    52    1
   115    37    67    1
   116    38    53    1
   117    38    68    1
   118    42    48    1
   119    42    72    1
   120    43    44    2
   121    60    73    1
   122    61    74    1
   123    39    69    1
   124    39    57    1
   125    40    70    1
   126    40    50    1
   127    41    71    1
   128    41    49    1
