@<TRIPOS>MOLECULE
*****
 123 128 0 0 0
SMALL
GASTEIGER

@<TRIPOS>ATOM
     1 C         4.480582   -2.705676   -0.949017 C.3        1 UNL1     0.0009
     2 C         5.324843   -3.908808   -2.078944 C.2        1 UNL1     -0.0787
     3 C         5.636531   -5.271413   -2.456044 C.2        1 UNL1     -0.0649
     4 C         6.469719   -5.806386   -3.829347 C.2        1 UNL1     -0.0542
     5 C         6.715667   -6.911524   -4.680966 C.2        1 UNL1     0.0115
     6 C         6.510558   -8.442812   -4.843485 C.3        1 UNL1     -0.0348
     7 C         7.330296   -6.646268   -6.140028 C.2        1 UNL1     0.2441
     8 O         8.508752   -6.833407   -6.40974 O.2        1 UNL1     -0.2702
     9 N         6.376887   -6.435732   -7.151382 N.am        1 UNL1     -0.2772
     10 C         6.04443   -5.102715   -7.227943 C.2        1 UNL1     0.1049
     11 C         5.132611   -4.680115   -6.371078 C.2        1 UNL1     0.0801
     12 C         7.044069   -2.813062   -7.352624 C.ar        1 UNL1     0.0753
     13 C         6.173679   -2.459563   -6.272778 C.ar        1 UNL1     0.0305
     14 C         5.097448   -3.346065   -5.835868 C.2        1 UNL1     0.0924
     15 N         4.314013   -5.378988   -5.566093 N.pl3        1 UNL1     -0.3170
     16 C         3.394692   -4.451494   -4.96206 C.3        1 UNL1     0.1275
     17 N         4.145017   -3.142404   -4.93015 N.2        1 UNL1     -0.2557
     18 C         2.241662   -4.254955   -5.941649 C.3        1 UNL1     0.0016
     19 C         1.641022   -5.613792   -6.264736 C.3        1 UNL1     0.0026
     20 N         1.178534   -6.226955   -5.027333 N.3        1 UNL1     -0.3018
     21 C         2.205482   -6.401092   -3.998051 C.3        1 UNL1     0.0026
     22 C         2.79205   -5.023339   -3.685594 C.3        1 UNL1     0.0016
     23 C         0.327892   -7.378678   -5.252243 C.3        1 UNL1     0.0012
     24 C         -0.782968   -7.039508   -6.258578 C.3        1 UNL1     -0.0339
     25 C         -0.662164   -5.592048   -6.762883 C.3        1 UNL1     -0.0615
     26 C         -0.76765   -8.034377   -7.406089 C.3        1 UNL1     -0.0615
     27 C         7.988476   -1.913975   -7.842376 C.ar        1 UNL1     0.1347
     28 C         8.128474   -0.624411   -7.361257 C.ar        1 UNL1     0.0342
     29 C         7.294405   -0.315136   -6.265884 C.ar        1 UNL1     0.1435
     30 C         6.368731   -1.217878   -5.741094 C.ar        1 UNL1     0.0774
     31 O         7.234368   0.934681   -5.756609 O.3        1 UNL1     -0.4436
     32 C         5.996814   0.971137   -5.029971 C.3        1 UNL1     0.3143
     33 C         5.687861   -0.47541   -4.700938 C.2        1 UNL1     0.2504
     34 C         8.938132   0.470957   -7.997436 C.3        1 UNL1     -0.0327
     35 O         6.252213   1.636388   -3.786804 O.2        1 UNL1     -0.4528
     36 C         3.000195   3.346833   -2.834522 C.3        1 UNL1     0.0854
     37 C         1.56891   2.718918   -2.623169 C.3        1 UNL1     0.0236
     38 C         0.897443   3.030705   -1.200613 C.3        1 UNL1     0.1131
     39 C         1.713559   2.76448   0.128051 C.3        1 UNL1     0.0200
     40 C         2.6053   1.366061   0.305985 C.3        1 UNL1     0.0661
     41 C         2.04914   -0.210467   0.01814 C.3        1 UNL1     0.0091
     42 C         2.939994   -1.693999   -0.590887 C.3        1 UNL1     0.0661
     43 C         6.847327   -4.137195   -7.993111 C.2        1 UNL1     0.2131
     44 O         7.222638   -4.401767   -9.120888 O.2        1 UNL1     -0.2851
     45 O         8.82746   -2.352715   -8.864653 O.3        1 UNL1     -0.5056
     46 O         5.043484   -0.916706   -3.775796 O.2        1 UNL1     -0.2836
     47 C         5.243667   -2.605412   0.399178 C.3        1 UNL1     -0.0566
     48 O         2.392553   -2.592211   0.454406 O.3        1 UNL1     -0.3909
     49 C         0.744047   -0.136256   -0.742596 C.3        1 UNL1     -0.0577
     50 O         3.902197   1.526756   -0.232492 O.3        1 UNL1     -0.3910
     51 O         3.582311   3.949024   -1.70053 O.3        1 UNL1     -0.3753
     52 C         1.437597   1.323497   -3.316354 C.3        1 UNL1     -0.0564
     53 O         -0.572816   2.73348   -1.152431 O.3        1 UNL1     -0.4608
     54 C         -1.161876   1.755402   -0.394603 C.2        1 UNL1     0.3042
     55 O         -2.117158   1.877602   0.371126 O.2        1 UNL1     -0.2512
     56 C         -0.568005   0.391744   -0.605472 C.3        1 UNL1     0.0332
     57 C         2.397815   4.144589   0.558476 C.3        1 UNL1     -0.0567
     58 C         4.926956   1.498321   -6.014355 C.3        1 UNL1     0.0210
     59 C         2.785416   4.958252   -1.082241 C.3        1 UNL1     0.0372
     60 C         4.017714   2.417647   -3.397041 C.2        1 UNL1     -0.0208
     61 C         5.285838   2.206702   -3.041923 C.2        1 UNL1     0.0882
     62 H         4.848119   -1.886172   -1.578335 H        1 UNL1     0.0365
     63 H         5.865085   -3.225213   -2.737204 H        1 UNL1     0.0576
     64 H         5.195082   -6.124511   -1.935993 H        1 UNL1     0.0615
     65 H         6.932608   -4.897729   -4.223758 H        1 UNL1     0.0622
     66 H         2.85026   4.125833   -3.595263 H        1 UNL1     0.0645
     67 H         0.919552   3.296634   -3.303712 H        1 UNL1     0.0362
     68 H         0.809554   4.125381   -1.27466 H        1 UNL1     0.0741
     69 H         1.020746   2.71103   0.957244 H        1 UNL1     0.0359
     70 H         2.757852   1.375372   1.402207 H        1 UNL1     0.0600
     71 H         1.694097   -0.478413   1.032589 H        1 UNL1     0.0348
     72 H         3.714128   -1.005652   -0.221819 H        1 UNL1     0.0602
     73 H         3.632452   1.970672   -4.279671 H        1 UNL1     0.0628
     74 H         5.739179   2.580115   -2.123074 H        1 UNL1     0.1022
     75 H         6.63914   -8.74444   -5.910969 H        1 UNL1     0.0279
     76 H         7.223536   -9.084857   -4.331128 H        1 UNL1     0.0279
     77 H         5.473379   -8.755505   -4.653268 H        1 UNL1     0.0279
     78 H         5.526916   -6.95137   -6.93288 H        1 UNL1     0.1553
     79 H         4.098329   -6.350012   -5.698484 H        1 UNL1     0.1484
     80 H         1.499111   -3.585922   -5.49023 H        1 UNL1     0.0317
     81 H         2.586756   -3.766587   -6.859286 H        1 UNL1     0.0317
     82 H         2.360558   -6.263955   -6.78384 H        1 UNL1     0.0428
     83 H         0.822031   -5.450642   -6.965938 H        1 UNL1     0.0428
     84 H         1.816498   -6.789288   -3.05158 H        1 UNL1     0.0428
     85 H         2.963401   -7.138165   -4.297382 H        1 UNL1     0.0428
     86 H         3.439718   -5.169138   -2.841049 H        1 UNL1     0.0317
     87 H         2.008949   -4.36276   -3.293823 H        1 UNL1     0.0317
     88 H         0.946033   -8.183053   -5.671977 H        1 UNL1     0.0429
     89 H         -0.092254   -7.754124   -4.310281 H        1 UNL1     0.0429
     90 H         -1.75787   -7.159289   -5.771308 H        1 UNL1     0.0308
     91 H         -1.558149   -5.011448   -6.523682 H        1 UNL1     0.0233
     92 H         0.21039   -5.101876   -6.324718 H        1 UNL1     0.0233
     93 H         -0.529186   -5.53836   -7.850205 H        1 UNL1     0.0233
     94 H         -1.340475   -7.642407   -8.253477 H        1 UNL1     0.0233
     95 H         0.259571   -8.201501   -7.742016 H        1 UNL1     0.0233
     96 H         -1.202249   -8.992935   -7.109003 H        1 UNL1     0.0233
     97 H         9.120798   1.293219   -7.312053 H        1 UNL1     0.0280
     98 H         9.928214   0.12108   -8.317716 H        1 UNL1     0.0280
     99 H         8.400117   0.865516   -8.874908 H        1 UNL1     0.0280
     100 H         9.634634   -2.737136   -8.57086 H        1 UNL1     0.2922
     101 H         5.930635   -3.445838   0.496208 H        1 UNL1     0.0236
     102 H         4.58238   -2.516179   1.260409 H        1 UNL1     0.0236
     103 H         5.887299   -1.711091   0.445231 H        1 UNL1     0.0236
     104 H         1.54304   -2.945153   0.124665 H        1 UNL1     0.2098
     105 H         0.676365   0.696486   -1.438133 H        1 UNL1     0.0234
     106 H         0.449963   -1.063662   -1.23388 H        1 UNL1     0.0234
     107 H         -0.0   0.0   0.0 H        1 UNL1     0.0234
     108 H         4.295493   0.636419   -0.312413 H        1 UNL1     0.2098
     109 H         0.491627   1.219394   -3.865913 H        1 UNL1     0.0234
     110 H         2.275796   1.093437   -3.982866 H        1 UNL1     0.0234
     111 H         1.447495   0.505256   -2.584008 H        1 UNL1     0.0234
     112 H         -1.347901   -0.371048   -0.52029 H        1 UNL1     0.0342
     113 H         -0.048349   0.314392   -1.559316 H        1 UNL1     0.0342
     114 H         0.167937   0.211254   0.190128 H        1 UNL1     0.0342
     115 H         2.480545   4.236383   1.650226 H        1 UNL1     0.0234
     116 H         3.394826   4.29534   0.139796 H        1 UNL1     0.0234
     117 H         1.788651   5.032198   0.315553 H        1 UNL1     0.0234
     118 H         5.251367   1.409294   -7.065943 H        1 UNL1     0.0309
     119 H         3.955626   1.007591   -5.896434 H        1 UNL1     0.0309
     120 H         4.740667   2.571518   -5.897512 H        1 UNL1     0.0309
     121 H         1.757209   4.815447   -1.413532 H        1 UNL1     0.0524
     122 H         2.793357   4.882061   0.017836 H        1 UNL1     0.0524
     123 H         3.138355   5.944545   -1.369912 H        1 UNL1     0.0524
@<TRIPOS>BOND
     1     1     2    1
     2     1    42    1
     3     2     3    2
     4     3     4    1
     5     4     5    2
     6     5     7    1
     7     6    75    1
     8     6    76    1
     9     6    77    1
    10     7     9   am
    11     9    10    1
    12    10    11    2
    13    10    43    1
    14    11    14    1
    15    11    15    1
    16    12    13   ar
    17    12    27   ar
    18    12    43    1
    19    13    14    1
    20    13    30   ar
    21    14    17    2
    22    15    16    1
    23    16    17    1
    24    16    18    1
    25    16    22    1
    26    18    19    1
    27    19    20    1
    28    20    21    1
    29    21    22    1
    30    23    24    1
    31    23    88    1
    32    23    89    1
    33    24    25    1
    34    24    26    1
    35    24    90    1
    36    25    91    1
    37    25    92    1
    38    25    93    1
    39    26    94    1
    40    26    95    1
    41    26    96    1
    42    27    28   ar
    43    28    29   ar
    44    29    30   ar
    45    29    31    1
    46    30    33    1
    47    31    32    1
    48    32    33    1
    49    32    35    1
    50    34    97    1
    51    34    98    1
    52    34    99    1
    53    35    61    1
    54    36    37    1
    55    36    60    1
    56    37    38    1
    57    38    39    1
    58    39    40    1
    59    40    41    1
    60    41    42    1
    61    45   100    1
    62    47   101    1
    63    47   102    1
    64    47   103    1
    65    48   104    1
    66    49   105    1
    67    49   106    1
    68    49   107    1
    69    50   108    1
    70    51    59    1
    71    52   109    1
    72    52   110    1
    73    52   111    1
    74    53    54    1
    75    54    55    2
    76    54    56    1
    77    56   112    1
    78    56   113    1
    79    56   114    1
    80    57   115    1
    81    57   116    1
    82    57   117    1
    83    58   118    1
    84    58   119    1
    85    58   120    1
    86    59   121    1
    87    59   122    1
    88    59   123    1
    89    60    61    2
    90     1    47    1
    91     1    62    1
    92     2    63    1
    93     3    64    1
    94     4    65    1
    95     5     6    1
    96     7     8    2
    97     9    78    1
    98    15    79    1
    99    18    80    1
   100    18    81    1
   101    19    82    1
   102    19    83    1
   103    20    23    1
   104    21    84    1
   105    21    85    1
   106    22    86    1
   107    22    87    1
   108    27    45    1
   109    28    34    1
   110    32    58    1
   111    33    46    2
   112    36    51    1
   113    36    66    1
   114    37    52    1
   115    37    67    1
   116    38    53    1
   117    38    68    1
   118    42    48    1
   119    42    72    1
   120    43    44    2
   121    60    73    1
   122    61    74    1
   123    39    69    1
   124    39    57    1
   125    40    70    1
   126    40    50    1
   127    41    71    1
   128    41    49    1
