@<TRIPOS>MOLECULE
*****
 123 128 0 0 0
SMALL
GASTEIGER

@<TRIPOS>ATOM
     1 C         4.748745   2.395365   1.30802 C.3        1 UNL1     0.0009
     2 C         6.152198   3.450873   0.713662 C.2        1 UNL1     -0.0787
     3 C         7.510922   3.578205   0.230234 C.2        1 UNL1     -0.0649
     4 C         8.291208   4.974224   -0.325321 C.2        1 UNL1     -0.0542
     5 C         9.372208   5.472272   -1.09374 C.2        1 UNL1     0.0115
     6 C         10.683033   5.072685   -1.825443 C.3        1 UNL1     -0.0348
     7 C         9.329913   6.995691   -1.598116 C.2        1 UNL1     0.2441
     8 O         9.96896   7.891549   -1.063717 O.2        1 UNL1     -0.2702
     9 N         8.717819   7.185062   -2.849368 N.am        1 UNL1     -0.2772
     10 C         7.362581   7.368822   -2.69809 C.2        1 UNL1     0.1049
     11 C         6.635909   6.27216   -2.581886 C.2        1 UNL1     0.0801
     12 C         5.670807   8.673907   -1.397326 C.ar        1 UNL1     0.0753
     13 C         5.031494   7.422881   -1.123794 C.ar        1 UNL1     0.0305
     14 C         5.420496   6.197035   -1.817358 C.2        1 UNL1     0.0924
     15 N         6.970036   4.987878   -2.795208 N.pl3        1 UNL1     -0.3170
     16 C         5.770517   4.199475   -2.696068 C.3        1 UNL1     0.1275
     17 N         4.879079   4.98338   -1.764104 N.2        1 UNL1     -0.2557
     18 C         5.091466   4.23568   -4.061821 C.3        1 UNL1     0.0016
     19 C         6.079235   3.746852   -5.109174 C.3        1 UNL1     0.0026
     20 N         6.493631   2.393567   -4.765773 N.3        1 UNL1     -0.3018
     21 C         7.102832   2.246882   -3.442245 C.3        1 UNL1     0.0026
     22 C         6.091727   2.739374   -2.405417 C.3        1 UNL1     0.0016
     23 C         7.194216   1.727217   -5.845496 C.3        1 UNL1     0.0012
     24 C         6.226266   1.396399   -6.9924 C.3        1 UNL1     -0.0339
     25 C         6.321731   2.431702   -8.125137 C.3        1 UNL1     -0.0615
     26 C         6.481797   -0.01224   -7.499567 C.3        1 UNL1     -0.0615
     27 C         5.215178   9.858126   -0.822743 C.ar        1 UNL1     0.1347
     28 C         4.109516   9.922168   0.00639 C.ar        1 UNL1     0.0342
     29 C         3.525836   8.671561   0.300437 C.ar        1 UNL1     0.1435
     30 C         3.993557   7.472652   -0.239076 C.ar        1 UNL1     0.0774
     31 O         2.37646   8.578278   1.00417 O.3        1 UNL1     -0.4436
     32 C         1.866436   7.272631   0.694278 C.3        1 UNL1     0.3143
     33 C         3.074201   6.469343   0.255819 C.2        1 UNL1     0.2504
     34 C         3.415091   11.177958   0.454568 C.3        1 UNL1     -0.0327
     35 O         1.403423   6.694048   1.920701 O.2        1 UNL1     -0.4528
     36 C         -1.444213   4.372766   0.966391 C.3        1 UNL1     0.0854
     37 C         -1.442763   3.152688   -0.033074 C.3        1 UNL1     0.0236
     38 C         -1.951994   1.766406   0.591946 C.3        1 UNL1     0.1131
     39 C         -1.333996   1.24394   1.951128 C.3        1 UNL1     0.0200
     40 C         0.310792   1.32355   2.217164 C.3        1 UNL1     0.0661
     41 C         1.516667   0.781871   1.154122 C.3        1 UNL1     0.0091
     42 C         3.212599   1.414806   0.856446 C.3        1 UNL1     0.0661
     43 C         6.779767   8.681709   -2.383432 C.2        1 UNL1     0.2131
     44 O         7.135809   9.676904   -2.988047 O.2        1 UNL1     -0.2851
     45 O         5.921593   11.025539   -1.104809 O.3        1 UNL1     -0.5056
     46 O         3.247491   5.272858   0.320993 O.2        1 UNL1     -0.2836
     47 C         5.011033   1.91804   2.761755 C.3        1 UNL1     -0.0566
     48 O         3.846669   0.075886   0.922515 O.3        1 UNL1     -0.3909
     49 C         0.895149   0.530719   -0.201656 C.3        1 UNL1     -0.0577
     50 O         0.670964   2.579201   2.756924 O.3        1 UNL1     -0.3910
     51 O         -1.72099   4.064871   2.313991 O.3        1 UNL1     -0.3753
     52 C         -0.243933   3.222362   -1.034525 C.3        1 UNL1     -0.0564
     53 O         -2.273951   0.724889   -0.439515 O.3        1 UNL1     -0.4608
     54 C         -2.358647   -0.623249   -0.208693 C.2        1 UNL1     0.3042
     55 O         -1.597157   -1.499914   -0.615422 O.2        1 UNL1     -0.2512
     56 C         -3.496367   -1.008632   0.693409 C.3        1 UNL1     0.0332
     57 C         -2.303771   1.712613   3.133522 C.3        1 UNL1     -0.0567
     58 C         0.918752   7.448903   -0.514999 C.3        1 UNL1     0.0210
     59 C         -2.29648   5.131767   3.066593 C.3        1 UNL1     0.0372
     60 C         -0.20201   5.192553   0.959784 C.2        1 UNL1     -0.0208
     61 C         0.515948   5.682219   1.97147 C.2        1 UNL1     0.0882
     62 H         4.12766   3.296218   1.381685 H        1 UNL1     0.0365
     63 H         5.724251   4.447747   0.838449 H        1 UNL1     0.0576
     64 H         8.129138   2.701935   0.02271 H        1 UNL1     0.0615
     65 H         7.635097   5.78629   -0.000437 H        1 UNL1     0.0622
     66 H         -2.242148   5.031822   0.596268 H        1 UNL1     0.0645
     67 H         -2.256258   3.385823   -0.7419 H        1 UNL1     0.0362
     68 H         -2.990352   2.042689   0.8307 H        1 UNL1     0.0741
     69 H         -1.537925   0.185372   2.041989 H        1 UNL1     0.0359
     70 H         0.400634   0.620861   3.067585 H        1 UNL1     0.0600
     71 H         1.651658   -0.252747   1.526009 H        1 UNL1     0.0348
     72 H         2.909287   1.809712   1.836938 H        1 UNL1     0.0602
     73 H         0.02101   5.480654   -0.037466 H        1 UNL1     0.0628
     74 H         0.388915   5.392068   3.014979 H        1 UNL1     0.1022
     75 H         10.852176   3.971228   -1.753211 H        1 UNL1     0.0279
     76 H         10.710847   5.244044   -2.899189 H        1 UNL1     0.0279
     77 H         11.583308   5.463299   -1.328827 H        1 UNL1     0.0279
     78 H         8.852228   6.356292   -3.424826 H        1 UNL1     0.1553
     79 H         7.765621   4.701735   -3.33567 H        1 UNL1     0.1484
     80 H         4.19459   3.605212   -4.031999 H        1 UNL1     0.0317
     81 H         4.75426   5.249137   -4.304408 H        1 UNL1     0.0317
     82 H         6.947291   4.417033   -5.194308 H        1 UNL1     0.0428
     83 H         5.575208   3.782497   -6.075475 H        1 UNL1     0.0428
     84 H         7.331697   1.209971   -3.1772 H        1 UNL1     0.0428
     85 H         8.073181   2.758596   -3.379894 H        1 UNL1     0.0428
     86 H         6.515331   2.49484   -1.448991 H        1 UNL1     0.0317
     87 H         5.18417   2.124707   -2.445667 H        1 UNL1     0.0317
     88 H         7.965411   2.410212   -6.225064 H        1 UNL1     0.0429
     89 H         7.709723   0.825767   -5.48995 H        1 UNL1     0.0429
     90 H         5.199844   1.394328   -6.606828 H        1 UNL1     0.0308
     91 H         7.341663   2.501885   -8.514899 H        1 UNL1     0.0233
     92 H         5.642702   2.174769   -8.941541 H        1 UNL1     0.0233
     93 H         6.037005   3.438373   -7.795926 H        1 UNL1     0.0233
     94 H         5.933415   -0.183154   -8.432252 H        1 UNL1     0.0233
     95 H         7.547292   -0.147746   -7.705289 H        1 UNL1     0.0233
     96 H         6.164939   -0.762681   -6.769905 H        1 UNL1     0.0233
     97 H         2.541924   10.965339   1.064161 H        1 UNL1     0.0280
     98 H         4.064852   11.812586   1.071264 H        1 UNL1     0.0280
     99 H         3.08919   11.754116   -0.426866 H        1 UNL1     0.0280
     100 H         5.39672   11.727824   -1.446756 H        1 UNL1     0.2922
     101 H         4.156281   1.344971   3.120429 H        1 UNL1     0.0236
     102 H         5.272062   2.730436   3.439147 H        1 UNL1     0.0236
     103 H         5.861602   1.21859   2.820875 H        1 UNL1     0.0236
     104 H         4.156376   -0.058877   1.839516 H        1 UNL1     0.2098
     105 H         0.63134   1.432334   -0.748744 H        1 UNL1     0.0234
     106 H         1.457941   -0.148541   -0.841811 H        1 UNL1     0.0234
     107 H         0.0   -0.0   0.0 H        1 UNL1     0.0234
     108 H         0.488225   3.252103   2.073128 H        1 UNL1     0.2098
     109 H         0.727331   3.234135   -0.520502 H        1 UNL1     0.0234
     110 H         -0.255888   2.417051   -1.776869 H        1 UNL1     0.0234
     111 H         -0.27258   4.140122   -1.63689 H        1 UNL1     0.0234
     112 H         -3.494518   -2.091161   0.853017 H        1 UNL1     0.0342
     113 H         -3.466484   -0.473857   1.641547 H        1 UNL1     0.0342
     114 H         -4.437129   -0.743838   0.191399 H        1 UNL1     0.0342
     115 H         -3.321651   1.318702   3.007262 H        1 UNL1     0.0234
     116 H         -1.961245   1.424216   4.12929 H        1 UNL1     0.0234
     117 H         -2.495248   2.799455   3.140752 H        1 UNL1     0.0234
     118 H         -0.090158   7.774873   -0.207022 H        1 UNL1     0.0309
     119 H         1.305951   8.144266   -1.266497 H        1 UNL1     0.0309
     120 H         0.730028   6.507184   -1.041929 H        1 UNL1     0.0309
     121 H         -1.560665   5.93387   3.11723 H        1 UNL1     0.0524
     122 H         -3.201388   5.541159   2.587452 H        1 UNL1     0.0524
     123 H         -2.550093   4.792068   4.066783 H        1 UNL1     0.0524
@<TRIPOS>BOND
     1     1     2    1
     2     1    42    1
     3     2     3    2
     4     3     4    1
     5     4     5    2
     6     5     7    1
     7     6    75    1
     8     6    76    1
     9     6    77    1
    10     7     9   am
    11     9    10    1
    12    10    11    2
    13    10    43    1
    14    11    14    1
    15    11    15    1
    16    12    13   ar
    17    12    27   ar
    18    12    43    1
    19    13    14    1
    20    13    30   ar
    21    14    17    2
    22    15    16    1
    23    16    17    1
    24    16    18    1
    25    16    22    1
    26    18    19    1
    27    19    20    1
    28    20    21    1
    29    21    22    1
    30    23    24    1
    31    23    88    1
    32    23    89    1
    33    24    25    1
    34    24    26    1
    35    24    90    1
    36    25    91    1
    37    25    92    1
    38    25    93    1
    39    26    94    1
    40    26    95    1
    41    26    96    1
    42    27    28   ar
    43    28    29   ar
    44    29    30   ar
    45    29    31    1
    46    30    33    1
    47    31    32    1
    48    32    33    1
    49    32    35    1
    50    34    97    1
    51    34    98    1
    52    34    99    1
    53    35    61    1
    54    36    37    1
    55    36    60    1
    56    37    38    1
    57    38    39    1
    58    39    40    1
    59    40    41    1
    60    41    42    1
    61    45   100    1
    62    47   101    1
    63    47   102    1
    64    47   103    1
    65    48   104    1
    66    49   105    1
    67    49   106    1
    68    49   107    1
    69    50   108    1
    70    51    59    1
    71    52   109    1
    72    52   110    1
    73    52   111    1
    74    53    54    1
    75    54    55    2
    76    54    56    1
    77    56   112    1
    78    56   113    1
    79    56   114    1
    80    57   115    1
    81    57   116    1
    82    57   117    1
    83    58   118    1
    84    58   119    1
    85    58   120    1
    86    59   121    1
    87    59   122    1
    88    59   123    1
    89    60    61    2
    90     1    47    1
    91     1    62    1
    92     2    63    1
    93     3    64    1
    94     4    65    1
    95     5     6    1
    96     7     8    2
    97     9    78    1
    98    15    79    1
    99    18    80    1
   100    18    81    1
   101    19    82    1
   102    19    83    1
   103    20    23    1
   104    21    84    1
   105    21    85    1
   106    22    86    1
   107    22    87    1
   108    27    45    1
   109    28    34    1
   110    32    58    1
   111    33    46    2
   112    36    51    1
   113    36    66    1
   114    37    52    1
   115    37    67    1
   116    38    53    1
   117    38    68    1
   118    42    48    1
   119    42    72    1
   120    43    44    2
   121    60    73    1
   122    61    74    1
   123    39    69    1
   124    39    57    1
   125    40    70    1
   126    40    50    1
   127    41    71    1
   128    41    49    1
