@<TRIPOS>MOLECULE
*****
 123 128 0 0 0
SMALL
GASTEIGER

@<TRIPOS>ATOM
     1 C         4.973309   2.234649   0.533188 C.3        1 UNL1     0.0009
     2 C         6.362294   3.1099   -0.328027 C.2        1 UNL1     -0.0787
     3 C         7.675235   3.086952   -0.937706 C.2        1 UNL1     -0.0649
     4 C         8.463194   4.340311   -1.759027 C.2        1 UNL1     -0.0542
     5 C         9.490367   4.658439   -2.681409 C.2        1 UNL1     0.0115
     6 C         10.70917   4.081879   -3.453044 C.3        1 UNL1     -0.0348
     7 C         9.470484   6.092754   -3.402059 C.2        1 UNL1     0.2441
     8 O         10.195534   7.017894   -3.063025 O.2        1 UNL1     -0.2702
     9 N         8.755221   6.134345   -4.61153 N.am        1 UNL1     -0.2772
     10 C         7.429238   6.416344   -4.3758 C.2        1 UNL1     0.1049
     11 C         6.667731   5.392033   -4.036512 C.2        1 UNL1     0.0801
     12 C         5.924452   7.991741   -3.146542 C.ar        1 UNL1     0.0753
     13 C         5.257351   6.832638   -2.636576 C.ar        1 UNL1     0.0305
     14 C         5.525509   5.498894   -3.169745 C.2        1 UNL1     0.0924
     15 N         6.922772   4.073207   -4.0832 N.pl3        1 UNL1     -0.3170
     16 C         5.70319   3.378346   -3.766903 C.3        1 UNL1     0.1275
     17 N         4.937246   4.339169   -2.890619 N.2        1 UNL1     -0.2557
     18 C         4.903921   3.255965   -5.060693 C.3        1 UNL1     0.0016
     19 C         5.768364   2.564338   -6.102797 C.3        1 UNL1     0.0026
     20 N         6.151268   1.253215   -5.597455 N.3        1 UNL1     -0.3018
     21 C         6.872208   1.26441   -4.322901 C.3        1 UNL1     0.0026
     22 C         5.98375   1.959488   -3.289749 C.3        1 UNL1     0.0016
     23 C         6.719078   0.398211   -6.620785 C.3        1 UNL1     0.0012
     24 C         7.836742   1.133068   -7.377466 C.3        1 UNL1     -0.0339
     25 C         7.883779   0.714845   -8.856295 C.3        1 UNL1     -0.0615
     26 C         7.667699   2.634858   -7.226366 C.3        1 UNL1     -0.0615
     27 C         5.577218   9.271022   -2.718774 C.ar        1 UNL1     0.1347
     28 C         4.556362   9.518329   -1.818361 C.ar        1 UNL1     0.0342
     29 C         3.946505   8.35938   -1.29293 C.ar        1 UNL1     0.1435
     30 C         4.308327   7.069959   -1.684973 C.ar        1 UNL1     0.0774
     31 O         2.863575   8.435683   -0.488911 O.3        1 UNL1     -0.4436
     32 C         2.26906   7.130747   -0.556479 C.3        1 UNL1     0.3143
     33 C         3.394115   6.203806   -0.970297 C.2        1 UNL1     0.2504
     34 C         3.963196   10.863876   -1.505703 C.3        1 UNL1     -0.0327
     35 O         1.895068   6.763464   0.77712 O.2        1 UNL1     -0.4528
     36 C         -1.12965   4.497681   0.423007 C.3        1 UNL1     0.0854
     37 C         -1.274841   3.14787   -0.379771 C.3        1 UNL1     0.0236
     38 C         -1.78635   1.898455   0.485714 C.3        1 UNL1     0.1131
     39 C         -1.070281   1.543105   1.85072 C.3        1 UNL1     0.0200
     40 C         0.593894   1.564821   1.962461 C.3        1 UNL1     0.0661
     41 C         1.671484   0.80607   0.894423 C.3        1 UNL1     0.0091
     42 C         3.359656   1.289855   0.363924 C.3        1 UNL1     0.0661
     43 C         6.937406   7.792506   -4.212604 C.2        1 UNL1     0.2131
     44 O         7.280815   8.667448   -4.986738 O.2        1 UNL1     -0.2851
     45 O         6.306526   10.342407   -3.230323 O.3        1 UNL1     -0.5056
     46 O         3.518681   5.021312   -0.742163 O.2        1 UNL1     -0.2836
     47 C         5.346242   1.958196   2.014564 C.3        1 UNL1     -0.0566
     48 O         3.936265   -0.05993   0.575395 O.3        1 UNL1     -0.3909
     49 C         0.917441   0.397948   -0.351511 C.3        1 UNL1     -0.0577
     50 O         1.058202   2.862309   2.276576 O.3        1 UNL1     -0.3910
     51 O         -1.295083   4.404504   1.819925 O.3        1 UNL1     -0.3753
     52 C         -0.171115   3.00232   -1.477748 C.3        1 UNL1     -0.0564
     53 O         -2.248162   0.739154   -0.347998 O.3        1 UNL1     -0.4608
     54 C         -2.056181   -0.583709   -0.046162 C.2        1 UNL1     0.3042
     55 O         -1.226496   -1.348796   -0.536167 O.2        1 UNL1     -0.2512
     56 C         -2.950261   -1.085986   1.051586 C.3        1 UNL1     0.0332
     57 C         -1.905332   2.233311   3.027361 C.3        1 UNL1     -0.0567
     58 C         1.223231   7.184934   -1.694388 C.3        1 UNL1     0.0210
     59 C         -2.510251   4.962212   2.318117 C.3        1 UNL1     0.0372
     60 C         0.142299   5.234449   0.189599 C.2        1 UNL1     -0.0208
     61 C         0.971407   5.822813   1.052822 C.2        1 UNL1     0.0882
     62 H         4.402749   3.171176   0.523652 H        1 UNL1     0.0365
     63 H         5.992873   4.137467   -0.317785 H        1 UNL1     0.0576
     64 H         8.231754   2.155515   -1.063475 H        1 UNL1     0.0615
     65 H         7.876867   5.2275   -1.504863 H        1 UNL1     0.0622
     66 H         -1.927753   5.141436   0.027209 H        1 UNL1     0.0645
     67 H         -2.138675   3.322823   -1.044408 H        1 UNL1     0.0362
     68 H         -2.78492   2.26612   0.767144 H        1 UNL1     0.0741
     69 H         -1.312399   0.522438   2.115344 H        1 UNL1     0.0359
     70 H         0.729755   0.988502   2.897586 H        1 UNL1     0.0600
     71 H         1.793392   -0.169953   1.403809 H        1 UNL1     0.0348
     72 H         3.165721   1.839338   1.29654 H        1 UNL1     0.0602
     73 H         0.285537   5.361863   -0.85467 H        1 UNL1     0.0628
     74 H         0.927809   5.694497   2.13489 H        1 UNL1     0.1022
     75 H         11.368802   3.499656   -2.76534 H        1 UNL1     0.0279
     76 H         10.490091   3.358788   -4.235484 H        1 UNL1     0.0279
     77 H         11.398494   4.86356   -3.804481 H        1 UNL1     0.0279
     78 H         8.79882   5.224675   -5.066147 H        1 UNL1     0.1553
     79 H         7.651695   3.666247   -4.639965 H        1 UNL1     0.1484
     80 H         3.986134   2.689531   -4.861734 H        1 UNL1     0.0317
     81 H         4.591778   4.241515   -5.422508 H        1 UNL1     0.0317
     82 H         6.654189   3.163672   -6.359748 H        1 UNL1     0.0428
     83 H         5.179855   2.489025   -7.017693 H        1 UNL1     0.0428
     84 H         7.077585   0.265225   -3.926339 H        1 UNL1     0.0428
     85 H         7.866208   1.72261   -4.419518 H        1 UNL1     0.0428
     86 H         6.481958   1.8317   -2.346644 H        1 UNL1     0.0317
     87 H         5.049614   1.399146   -3.161284 H        1 UNL1     0.0317
     88 H         7.151093   -0.482927   -6.128591 H        1 UNL1     0.0429
     89 H         5.946507   0.034813   -7.310604 H        1 UNL1     0.0429
     90 H         8.801602   0.892293   -6.915637 H        1 UNL1     0.0308
     91 H         6.883565   0.708103   -9.299722 H        1 UNL1     0.0233
     92 H         8.525132   1.389439   -9.428307 H        1 UNL1     0.0233
     93 H         8.299079   -0.290997   -8.992833 H        1 UNL1     0.0233
     94 H         8.185144   3.1568   -8.038563 H        1 UNL1     0.0233
     95 H         6.607607   2.898561   -7.277629 H        1 UNL1     0.0233
     96 H         8.073749   2.988356   -6.274456 H        1 UNL1     0.0233
     97 H         2.897039   10.896443   -1.709369 H        1 UNL1     0.0280
     98 H         4.075038   11.129389   -0.44634 H        1 UNL1     0.0280
     99 H         4.455918   11.635943   -2.119081 H        1 UNL1     0.0280
     100 H         6.178375   10.500091   -4.149201 H        1 UNL1     0.2922
     101 H         4.817289   2.65609   2.663262 H        1 UNL1     0.0236
     102 H         6.420687   1.966365   2.1948 H        1 UNL1     0.0236
     103 H         5.013248   0.960537   2.346203 H        1 UNL1     0.0236
     104 H         3.200028   -0.664276   0.793782 H        1 UNL1     0.2098
     105 H         0.687338   1.218664   -1.026262 H        1 UNL1     0.0234
     106 H         1.362626   -0.430496   -0.902345 H        1 UNL1     0.0234
     107 H         0.0   -0.0   0.0 H        1 UNL1     0.0234
     108 H         2.019806   2.875381   2.10653 H        1 UNL1     0.2098
     109 H         -0.217162   3.808403   -2.223284 H        1 UNL1     0.0234
     110 H         0.841605   2.942614   -1.064739 H        1 UNL1     0.0234
     111 H         -0.283523   2.067677   -2.043215 H        1 UNL1     0.0234
     112 H         -2.732327   -2.138476   1.256804 H        1 UNL1     0.0342
     113 H         -2.864939   -0.485738   1.956167 H        1 UNL1     0.0342
     114 H         -3.99055   -1.018937   0.7045 H        1 UNL1     0.0342
     115 H         -1.897099   1.62732   3.943819 H        1 UNL1     0.0234
     116 H         -1.556281   3.233433   3.291875 H        1 UNL1     0.0234
     117 H         -2.987896   2.293774   2.821591 H        1 UNL1     0.0234
     118 H         0.189537   7.129681   -1.310423 H        1 UNL1     0.0309
     119 H         1.323074   8.072089   -2.327783 H        1 UNL1     0.0309
     120 H         1.289124   6.322962   -2.367269 H        1 UNL1     0.0309
     121 H         -2.339042   5.253276   3.354132 H        1 UNL1     0.0524
     122 H         -2.813155   5.866768   1.764887 H        1 UNL1     0.0524
     123 H         -3.3107   4.229947   2.261884 H        1 UNL1     0.0524
@<TRIPOS>BOND
     1     1     2    1
     2     1    42    1
     3     2     3    2
     4     3     4    1
     5     4     5    2
     6     5     7    1
     7     6    75    1
     8     6    76    1
     9     6    77    1
    10     7     9   am
    11     9    10    1
    12    10    11    2
    13    10    43    1
    14    11    14    1
    15    11    15    1
    16    12    13   ar
    17    12    27   ar
    18    12    43    1
    19    13    14    1
    20    13    30   ar
    21    14    17    2
    22    15    16    1
    23    16    17    1
    24    16    18    1
    25    16    22    1
    26    18    19    1
    27    19    20    1
    28    20    21    1
    29    21    22    1
    30    23    24    1
    31    23    88    1
    32    23    89    1
    33    24    25    1
    34    24    26    1
    35    24    90    1
    36    25    91    1
    37    25    92    1
    38    25    93    1
    39    26    94    1
    40    26    95    1
    41    26    96    1
    42    27    28   ar
    43    28    29   ar
    44    29    30   ar
    45    29    31    1
    46    30    33    1
    47    31    32    1
    48    32    33    1
    49    32    35    1
    50    34    97    1
    51    34    98    1
    52    34    99    1
    53    35    61    1
    54    36    37    1
    55    36    60    1
    56    37    38    1
    57    38    39    1
    58    39    40    1
    59    40    41    1
    60    41    42    1
    61    45   100    1
    62    47   101    1
    63    47   102    1
    64    47   103    1
    65    48   104    1
    66    49   105    1
    67    49   106    1
    68    49   107    1
    69    50   108    1
    70    51    59    1
    71    52   109    1
    72    52   110    1
    73    52   111    1
    74    53    54    1
    75    54    55    2
    76    54    56    1
    77    56   112    1
    78    56   113    1
    79    56   114    1
    80    57   115    1
    81    57   116    1
    82    57   117    1
    83    58   118    1
    84    58   119    1
    85    58   120    1
    86    59   121    1
    87    59   122    1
    88    59   123    1
    89    60    61    2
    90     1    47    1
    91     1    62    1
    92     2    63    1
    93     3    64    1
    94     4    65    1
    95     5     6    1
    96     7     8    2
    97     9    78    1
    98    15    79    1
    99    18    80    1
   100    18    81    1
   101    19    82    1
   102    19    83    1
   103    20    23    1
   104    21    84    1
   105    21    85    1
   106    22    86    1
   107    22    87    1
   108    27    45    1
   109    28    34    1
   110    32    58    1
   111    33    46    2
   112    36    51    1
   113    36    66    1
   114    37    52    1
   115    37    67    1
   116    38    53    1
   117    38    68    1
   118    42    48    1
   119    42    72    1
   120    43    44    2
   121    60    73    1
   122    61    74    1
   123    39    69    1
   124    39    57    1
   125    40    70    1
   126    40    50    1
   127    41    71    1
   128    41    49    1
