@<TRIPOS>MOLECULE
*****
 123 128 0 0 0
SMALL
GASTEIGER

@<TRIPOS>ATOM
     1 C         5.038378   2.052086   0.644433 C.3        1 UNL1     0.0009
     2 C         6.425614   2.991252   -0.149658 C.2        1 UNL1     -0.0787
     3 C         7.721298   3.010962   -0.795305 C.2        1 UNL1     -0.0649
     4 C         8.518232   4.33386   -1.488988 C.2        1 UNL1     -0.0542
     5 C         9.528592   4.734623   -2.397635 C.2        1 UNL1     0.0115
     6 C         10.71237   4.225357   -3.265184 C.3        1 UNL1     -0.0348
     7 C         9.525269   6.242864   -2.94735 C.2        1 UNL1     0.2441
     8 O         10.281427   7.106744   -2.524901 O.2        1 UNL1     -0.2702
     9 N         8.780044   6.439617   -4.122968 N.am        1 UNL1     -0.2772
     10 C         7.467976   6.720757   -3.818401 C.2        1 UNL1     0.1049
     11 C         6.690581   5.680591   -3.577708 C.2        1 UNL1     0.0801
     12 C         6.034866   8.175012   -2.373178 C.ar        1 UNL1     0.0753
     13 C         5.352937   6.979196   -1.981252 C.ar        1 UNL1     0.0305
     14 C         5.574253   5.710765   -2.672016 C.2        1 UNL1     0.0924
     15 N         6.911802   4.370894   -3.783336 N.pl3        1 UNL1     -0.3170
     16 C         5.684132   3.670364   -3.51438 C.3        1 UNL1     0.1275
     17 N         4.965096   4.539386   -2.511628 N.2        1 UNL1     -0.2557
     18 C         4.848728   3.715856   -4.790207 C.3        1 UNL1     0.0016
     19 C         5.668511   3.131254   -5.929411 C.3        1 UNL1     0.0026
     20 N         6.032055   1.762511   -5.589694 N.3        1 UNL1     -0.3018
     21 C         6.785945   1.610515   -4.343533 C.3        1 UNL1     0.0026
     22 C         5.942014   2.200095   -3.212131 C.3        1 UNL1     0.0016
     23 C         6.551864   1.019852   -6.720578 C.3        1 UNL1     0.0012
     24 C         5.432782   0.72534   -7.731852 C.3        1 UNL1     -0.0339
     25 C         5.640075   1.502567   -9.042197 C.3        1 UNL1     -0.0615
     26 C         5.334071   -0.770049   -7.978529 C.3        1 UNL1     -0.0615
     27 C         5.730445   9.403265   -1.791078 C.ar        1 UNL1     0.1347
     28 C         4.739736   9.566408   -0.839275 C.ar        1 UNL1     0.0342
     29 C         4.11542   8.367727   -0.433617 C.ar        1 UNL1     0.1435
     30 C         4.435099   7.124953   -0.98183 C.ar        1 UNL1     0.0774
     31 O         3.055964   8.373556   0.404551 O.3        1 UNL1     -0.4436
     32 C         2.427973   7.098277   0.204144 C.3        1 UNL1     0.3143
     33 C         3.518746   6.201626   -0.345804 C.2        1 UNL1     0.2504
     34 C         4.188177   10.879072   -0.356785 C.3        1 UNL1     -0.0327
     35 O         2.079857   6.587063   1.49671 O.2        1 UNL1     -0.4528
     36 C         -1.007866   4.442905   0.97074 C.3        1 UNL1     0.0854
     37 C         -1.20704   3.198613   0.022272 C.3        1 UNL1     0.0236
     38 C         -1.726454   1.868591   0.752337 C.3        1 UNL1     0.1131
     39 C         -0.984098   1.342228   2.046214 C.3        1 UNL1     0.0200
     40 C         0.68245   1.315184   2.11196 C.3        1 UNL1     0.0661
     41 C         1.712918   0.662363   0.93316 C.3        1 UNL1     0.0091
     42 C         3.398118   1.168062   0.413763 C.3        1 UNL1     0.0661
     43 C         7.014555   8.078966   -3.483693 C.2        1 UNL1     0.2131
     44 O         7.359141   9.030143   -4.161382 O.2        1 UNL1     -0.2851
     45 O         6.472342   10.510825   -2.196467 O.3        1 UNL1     -0.5056
     46 O         3.620075   4.998268   -0.259106 O.2        1 UNL1     -0.2836
     47 C         5.442784   1.597942   2.072785 C.3        1 UNL1     -0.0566
     48 O         3.946651   -0.209178   0.45168 O.3        1 UNL1     -0.3909
     49 C         0.916927   0.41759   -0.329369 C.3        1 UNL1     -0.0577
     50 O         1.186544   2.557293   2.560044 O.3        1 UNL1     -0.3910
     51 O         -1.139169   4.192082   2.351782 O.3        1 UNL1     -0.3753
     52 C         -0.136146   3.157631   -1.116348 C.3        1 UNL1     -0.0564
     53 O         -2.238163   0.823851   -0.195819 O.3        1 UNL1     -0.4608
     54 C         -2.379357   -0.508862   0.090311 C.2        1 UNL1     0.3042
     55 O         -1.64038   -1.429535   -0.256265 O.2        1 UNL1     -0.2512
     56 C         -3.554705   -0.812761   0.975136 C.3        1 UNL1     0.0332
     57 C         -1.771045   1.909201   3.317997 C.3        1 UNL1     -0.0567
     58 C         1.354564   7.306331   -0.88949 C.3        1 UNL1     0.0210
     59 C         -2.326886   4.714228   2.945547 C.3        1 UNL1     0.0372
     60 C         0.275324   5.174326   0.787414 C.2        1 UNL1     -0.0208
     61 C         1.140815   5.640815   1.688555 C.2        1 UNL1     0.0882
     62 H         4.490974   2.995422   0.759231 H        1 UNL1     0.0365
     63 H         6.081973   4.018391   -0.010498 H        1 UNL1     0.0576
     64 H         8.251279   2.088657   -1.043463 H        1 UNL1     0.0615
     65 H         7.960712   5.197988   -1.117588 H        1 UNL1     0.0622
     66 H         -1.799912   5.145135   0.674797 H        1 UNL1     0.0645
     67 H         -2.083296   3.467861   -0.59274 H        1 UNL1     0.0362
     68 H         -2.708024   2.222489   1.102765 H        1 UNL1     0.0741
     69 H         -1.244289   0.3032   2.198302 H        1 UNL1     0.0359
     70 H         0.828359   0.631629   2.970169 H        1 UNL1     0.0600
     71 H         1.823982   -0.36849   1.322986 H        1 UNL1     0.0348
     72 H         3.242069   1.609826   1.408654 H        1 UNL1     0.0602
     73 H         0.394455   5.418767   -0.238893 H        1 UNL1     0.0628
     74 H         1.122221   5.388964   2.749434 H        1 UNL1     0.1022
     75 H         10.785065   3.112172   -3.214502 H        1 UNL1     0.0279
     76 H         10.642931   4.4071   -4.335332 H        1 UNL1     0.0279
     77 H         11.692258   4.525025   -2.865534 H        1 UNL1     0.0279
     78 H         8.789419   5.588018   -4.680434 H        1 UNL1     0.1553
     79 H         7.615772   4.015652   -4.403951 H        1 UNL1     0.1484
     80 H         3.922767   3.149984   -4.631611 H        1 UNL1     0.0317
     81 H         4.551622   4.743148   -5.026955 H        1 UNL1     0.0317
     82 H         6.561832   3.7372   -6.140881 H        1 UNL1     0.0428
     83 H         5.054741   3.175073   -6.829642 H        1 UNL1     0.0428
     84 H         6.976921   0.567944   -4.070794 H        1 UNL1     0.0428
     85 H         7.788067   2.055416   -4.415166 H        1 UNL1     0.0428
     86 H         6.461278   1.953257   -2.304704 H        1 UNL1     0.0317
     87 H         4.998032   1.648791   -3.122361 H        1 UNL1     0.0317
     88 H         7.314473   1.637173   -7.213158 H        1 UNL1     0.0429
     89 H         7.046558   0.095031   -6.396914 H        1 UNL1     0.0429
     90 H         4.470093   1.021642   -7.298669 H        1 UNL1     0.0308
     91 H         6.675342   1.429333   -9.388552 H        1 UNL1     0.0233
     92 H         4.973442   1.128541   -9.822783 H        1 UNL1     0.0233
     93 H         5.415543   2.570633   -8.934234 H        1 UNL1     0.0233
     94 H         4.844086   -0.962876   -8.939033 H        1 UNL1     0.0233
     95 H         6.334843   -1.209348   -8.016415 H        1 UNL1     0.0233
     96 H         4.75988   -1.267233   -7.191712 H        1 UNL1     0.0233
     97 H         3.118161   10.957739   -0.524434 H        1 UNL1     0.0280
     98 H         4.334279   11.017734   0.72242 H        1 UNL1     0.0280
     99 H         4.683419   11.706255   -0.8912 H        1 UNL1     0.0280
     100 H         7.404397   10.380945   -2.191265 H        1 UNL1     0.2922
     101 H         4.548701   1.374799   2.654575 H        1 UNL1     0.0236
     102 H         6.094111   2.308741   2.580251 H        1 UNL1     0.0236
     103 H         6.012194   0.653571   2.061408 H        1 UNL1     0.0236
     104 H         4.282173   -0.368248   1.355612 H        1 UNL1     0.2098
     105 H         0.688408   1.315851   -0.897452 H        1 UNL1     0.0234
     106 H         1.327896   -0.349818   -0.985202 H        1 UNL1     0.0234
     107 H         0.0   -0.0   0.0 H        1 UNL1     0.0234
     108 H         1.00691   3.213165   1.859093 H        1 UNL1     0.2098
     109 H         -0.181717   4.04546   -1.76241 H        1 UNL1     0.0234
     110 H         0.885193   3.028789   -0.742171 H        1 UNL1     0.0234
     111 H         -0.286175   2.297419   -1.782286 H        1 UNL1     0.0234
     112 H         -4.088048   -1.69026   0.597133 H        1 UNL1     0.0342
     113 H         -3.259908   -0.952293   2.014111 H        1 UNL1     0.0342
     114 H         -4.243415   0.042429   0.936517 H        1 UNL1     0.0342
     115 H         -2.845058   1.682986   3.267892 H        1 UNL1     0.0234
     116 H         -1.400413   1.53273   4.273482 H        1 UNL1     0.0234
     117 H         -1.787622   3.011474   3.369584 H        1 UNL1     0.0234
     118 H         0.330155   7.230672   -0.484683 H        1 UNL1     0.0309
     119 H         1.460622   8.25787   -1.420081 H        1 UNL1     0.0309
     120 H         1.380712   6.52606   -1.657995 H        1 UNL1     0.0309
     121 H         -2.121693   4.879569   4.002862 H        1 UNL1     0.0524
     122 H         -2.621728   5.68307   2.509139 H        1 UNL1     0.0524
     123 H         -3.146298   4.010732   2.828283 H        1 UNL1     0.0524
@<TRIPOS>BOND
     1     1     2    1
     2     1    42    1
     3     2     3    2
     4     3     4    1
     5     4     5    2
     6     5     7    1
     7     6    75    1
     8     6    76    1
     9     6    77    1
    10     7     9   am
    11     9    10    1
    12    10    11    2
    13    10    43    1
    14    11    14    1
    15    11    15    1
    16    12    13   ar
    17    12    27   ar
    18    12    43    1
    19    13    14    1
    20    13    30   ar
    21    14    17    2
    22    15    16    1
    23    16    17    1
    24    16    18    1
    25    16    22    1
    26    18    19    1
    27    19    20    1
    28    20    21    1
    29    21    22    1
    30    23    24    1
    31    23    88    1
    32    23    89    1
    33    24    25    1
    34    24    26    1
    35    24    90    1
    36    25    91    1
    37    25    92    1
    38    25    93    1
    39    26    94    1
    40    26    95    1
    41    26    96    1
    42    27    28   ar
    43    28    29   ar
    44    29    30   ar
    45    29    31    1
    46    30    33    1
    47    31    32    1
    48    32    33    1
    49    32    35    1
    50    34    97    1
    51    34    98    1
    52    34    99    1
    53    35    61    1
    54    36    37    1
    55    36    60    1
    56    37    38    1
    57    38    39    1
    58    39    40    1
    59    40    41    1
    60    41    42    1
    61    45   100    1
    62    47   101    1
    63    47   102    1
    64    47   103    1
    65    48   104    1
    66    49   105    1
    67    49   106    1
    68    49   107    1
    69    50   108    1
    70    51    59    1
    71    52   109    1
    72    52   110    1
    73    52   111    1
    74    53    54    1
    75    54    55    2
    76    54    56    1
    77    56   112    1
    78    56   113    1
    79    56   114    1
    80    57   115    1
    81    57   116    1
    82    57   117    1
    83    58   118    1
    84    58   119    1
    85    58   120    1
    86    59   121    1
    87    59   122    1
    88    59   123    1
    89    60    61    2
    90     1    47    1
    91     1    62    1
    92     2    63    1
    93     3    64    1
    94     4    65    1
    95     5     6    1
    96     7     8    2
    97     9    78    1
    98    15    79    1
    99    18    80    1
   100    18    81    1
   101    19    82    1
   102    19    83    1
   103    20    23    1
   104    21    84    1
   105    21    85    1
   106    22    86    1
   107    22    87    1
   108    27    45    1
   109    28    34    1
   110    32    58    1
   111    33    46    2
   112    36    51    1
   113    36    66    1
   114    37    52    1
   115    37    67    1
   116    38    53    1
   117    38    68    1
   118    42    48    1
   119    42    72    1
   120    43    44    2
   121    60    73    1
   122    61    74    1
   123    39    69    1
   124    39    57    1
   125    40    70    1
   126    40    50    1
   127    41    71    1
   128    41    49    1
