@<TRIPOS>MOLECULE
*****
 123 128 0 0 0
SMALL
GASTEIGER

@<TRIPOS>ATOM
     1 C         -4.259068   -2.354356   -0.892521 C.3        1 UNL1     0.0009
     2 C         -5.156222   -3.916784   -0.455518 C.2        1 UNL1     -0.0787
     3 C         -5.380784   -5.33338   -0.652683 C.2        1 UNL1     -0.0649
     4 C         -6.382973   -6.362677   0.243154 C.2        1 UNL1     -0.0542
     5 C         -6.655914   -7.71059   0.583317 C.2        1 UNL1     0.0115
     6 C         -6.318474   -9.186981   0.237299 C.3        1 UNL1     -0.0348
     7 C         -7.546381   -8.018809   1.882955 C.2        1 UNL1     0.2441
     8 O         -8.72674   -8.334215   1.821334 O.2        1 UNL1     -0.2702
     9 N         -6.817506   -8.157474   3.076967 N.am        1 UNL1     -0.2772
     10 C         -6.650477   -6.933257   3.682537 C.2        1 UNL1     0.1049
     11 C         -5.651481   -6.194164   3.235355 C.2        1 UNL1     0.0801
     12 C         -7.898377   -4.885112   4.393298 C.ar        1 UNL1     0.0753
     13 C         -6.892574   -4.13041   3.709637 C.ar        1 UNL1     0.0305
     14 C         -5.666   -4.75647   3.221154 C.2        1 UNL1     0.0924
     15 N         -4.631424   -6.520682   2.423322 N.pl3        1 UNL1     -0.3170
     16 C         -3.724959   -5.40392   2.385655 C.3        1 UNL1     0.1275
     17 N         -4.594843   -4.20174   2.660953 N.2        1 UNL1     -0.2557
     18 C         -2.793677   -5.536751   3.586809 C.3        1 UNL1     0.0016
     19 C         -2.116805   -6.896946   3.529321 C.3        1 UNL1     0.0026
     20 N         -1.37703   -6.998825   2.278968 N.3        1 UNL1     -0.3018
     21 C         -2.178562   -6.822429   1.066203 C.3        1 UNL1     0.0026
     22 C         -2.845621   -5.448005   1.142928 C.3        1 UNL1     0.0016
     23 C         -0.460571   -8.121416   2.255807 C.3        1 UNL1     0.0012
     24 C         0.560338   -7.959902   1.118524 C.3        1 UNL1     -0.0339
     25 C         1.768023   -8.891975   1.310346 C.3        1 UNL1     -0.0615
     26 C         -0.114174   -8.187842   -0.223064 C.3        1 UNL1     -0.0615
     27 C         -9.006839   -4.26184   4.961596 C.ar        1 UNL1     0.1347
     28 C         -9.197499   -2.891646   4.945187 C.ar        1 UNL1     0.0342
     29 C         -8.21965   -2.173738   4.224366 C.ar        1 UNL1     0.1435
     30 C         -7.122851   -2.7883   3.61892 C.ar        1 UNL1     0.0774
     31 O         -8.205352   -0.822968   4.209457 O.3        1 UNL1     -0.4436
     32 C         -6.869244   -0.478788   3.812937 C.3        1 UNL1     0.3143
     33 C         -6.351616   -1.69313   3.068861 C.2        1 UNL1     0.2504
     34 C         -10.221609   -2.134331   5.743792 C.3        1 UNL1     -0.0327
     35 O         -6.968979   0.584609   2.857693 O.2        1 UNL1     -0.4528
     36 C         -3.803906   2.641692   3.256199 C.3        1 UNL1     0.0854
     37 C         -2.298426   2.186762   3.137488 C.3        1 UNL1     0.0236
     38 C         -1.42141   3.020533   2.085151 C.3        1 UNL1     0.1131
     39 C         -1.953301   3.228218   0.609946 C.3        1 UNL1     0.0200
     40 C         -2.642074   1.959826   -0.226242 C.3        1 UNL1     0.0661
     41 C         -1.978821   0.408365   -0.40138 C.3        1 UNL1     0.0091
     42 C         -2.798101   -1.226454   -0.548181 C.3        1 UNL1     0.0661
     43 C         -7.676953   -6.343578   4.554878 C.2        1 UNL1     0.2131
     44 O         -8.216801   -7.015046   5.415362 O.2        1 UNL1     -0.2851
     45 O         -9.96241   -5.073683   5.569242 O.3        1 UNL1     -0.5056
     46 O         -5.508371   -1.742501   2.201478 O.2        1 UNL1     -0.2836
     47 C         -4.775313   -1.796675   -2.246207 C.3        1 UNL1     -0.0566
     48 O         -1.978688   -1.660549   -1.705437 O.3        1 UNL1     -0.3909
     49 C         -0.84648   0.247157   0.588221 C.3        1 UNL1     -0.0577
     50 O         -4.023959   1.865582   0.055249 O.3        1 UNL1     -0.3910
     51 O         -4.23582   3.59469   2.311384 O.3        1 UNL1     -0.3753
     52 C         -2.142679   0.640361   3.30877 C.3        1 UNL1     -0.0564
     53 O         0.057208   2.815087   2.23945 O.3        1 UNL1     -0.4608
     54 C         1.031309   3.54274   1.607327 C.2        1 UNL1     0.3042
     55 O         2.240638   3.526771   1.833393 O.2        1 UNL1     -0.2512
     56 C         0.511897   4.395917   0.485269 C.3        1 UNL1     0.0332
     57 C         -2.695072   4.644345   0.559612 C.3        1 UNL1     -0.0567
     58 C         -6.055975   -0.308802   5.117248 C.3        1 UNL1     0.0210
     59 C         -3.455387   4.788239   2.264149 C.3        1 UNL1     0.0372
     60 C         -4.798801   1.53494   3.235138 C.2        1 UNL1     -0.0208
     61 C         -5.952641   1.422222   2.575826 C.2        1 UNL1     0.0882
     62 H         -4.819705   -1.835088   -0.105909 H        1 UNL1     0.0365
     63 H         -5.876199   -3.540795   0.274369 H        1 UNL1     0.0576
     64 H         -4.763748   -5.9211   -1.336027 H        1 UNL1     0.0615
     65 H         -7.004548   -5.678187   0.826764 H        1 UNL1     0.0622
     66 H         -3.877583   3.094123   4.255161 H        1 UNL1     0.0645
     67 H         -1.847569   2.499381   4.09538 H        1 UNL1     0.0362
     68 H         -1.467281   4.01505   2.554568 H        1 UNL1     0.0741
     69 H         -1.121849   3.506386   -0.023867 H        1 UNL1     0.0359
     70 H         -2.596423   2.363114   -1.255967 H        1 UNL1     0.0600
     71 H         -1.42135   0.542336   -1.349133 H        1 UNL1     0.0348
     72 H         -3.563785   -0.479525   -0.803406 H        1 UNL1     0.0602
     73 H         -4.531305   0.810937   3.964188 H        1 UNL1     0.0628
     74 H         -6.272273   2.088537   1.773893 H        1 UNL1     0.1022
     75 H         -5.559269   -9.59267   0.948676 H        1 UNL1     0.0279
     76 H         -7.131054   -9.904349   0.32767 H        1 UNL1     0.0279
     77 H         -5.792099   -9.28908   -0.723016 H        1 UNL1     0.0279
     78 H         -5.891396   -8.526487   2.871473 H        1 UNL1     0.1553
     79 H         -4.338956   -7.464488   2.248323 H        1 UNL1     0.1484
     80 H         -2.059346   -4.72257   3.561623 H        1 UNL1     0.0317
     81 H         -3.348002   -5.429965   4.52541 H        1 UNL1     0.0317
     82 H         -2.842765   -7.717443   3.627699 H        1 UNL1     0.0428
     83 H         -1.458837   -6.97136   4.395687 H        1 UNL1     0.0428
     84 H         -1.587017   -6.823904   0.145397 H        1 UNL1     0.0428
     85 H         -2.893379   -7.644945   0.925418 H        1 UNL1     0.0428
     86 H         -3.312318   -5.298892   0.186922 H        1 UNL1     0.0317
     87 H         -2.081376   -4.661989   1.177622 H        1 UNL1     0.0317
     88 H         0.080373   -8.140455   3.210957 H        1 UNL1     0.0429
     89 H         -0.999112   -9.074176   2.172153 H        1 UNL1     0.0429
     90 H         0.918239   -6.923643   1.101605 H        1 UNL1     0.0308
     91 H         1.620078   -9.564833   2.160332 H        1 UNL1     0.0233
     92 H         1.945111   -9.485034   0.410052 H        1 UNL1     0.0233
     93 H         2.696161   -8.33929   1.499912 H        1 UNL1     0.0233
     94 H         -1.190229   -8.338265   -0.084089 H        1 UNL1     0.0233
     95 H         0.023854   -7.312671   -0.864146 H        1 UNL1     0.0233
     96 H         0.294677   -9.065663   -0.731236 H        1 UNL1     0.0233
     97 H         -10.366946   -1.125876   5.368125 H        1 UNL1     0.0280
     98 H         -11.209133   -2.61279   5.710171 H        1 UNL1     0.0280
     99 H         -9.89493   -2.067951   6.794492 H        1 UNL1     0.0280
     100 H         -9.654329   -5.93065   5.806552 H        1 UNL1     0.2922
     101 H         -5.647076   -2.365114   -2.569568 H        1 UNL1     0.0236
     102 H         -4.004669   -1.756938   -3.015304 H        1 UNL1     0.0236
     103 H         -5.135968   -0.758427   -2.155865 H        1 UNL1     0.0236
     104 H         -1.792975   -0.869669   -2.248567 H        1 UNL1     0.2098
     105 H         -0.609756   1.147048   1.150334 H        1 UNL1     0.0234
     106 H         -0.948298   -0.603377   1.262129 H        1 UNL1     0.0234
     107 H         0.0   -0.0   0.0 H        1 UNL1     0.0234
     108 H         -4.503439   2.135839   -0.75149 H        1 UNL1     0.2098
     109 H         -1.33106   0.232947   2.689899 H        1 UNL1     0.0234
     110 H         -1.997545   0.335189   4.350667 H        1 UNL1     0.0234
     111 H         -3.050178   0.105377   2.998633 H        1 UNL1     0.0234
     112 H         1.285603   4.517165   -0.278946 H        1 UNL1     0.0342
     113 H         -0.403306   3.992908   0.054189 H        1 UNL1     0.0342
     114 H         0.279376   5.390596   0.889882 H        1 UNL1     0.0342
     115 H         -3.085283   4.865567   -0.443376 H        1 UNL1     0.0234
     116 H         -3.52548   4.735765   1.262544 H        1 UNL1     0.0234
     117 H         -2.018241   5.501383   0.718756 H        1 UNL1     0.0234
     118 H         -6.551453   -0.787302   5.980119 H        1 UNL1     0.0309
     119 H         -5.031853   -0.686947   5.037354 H        1 UNL1     0.0309
     120 H         -5.969188   0.738996   5.42497 H        1 UNL1     0.0309
     121 H         -3.757527   5.344842   1.377436 H        1 UNL1     0.0524
     122 H         -3.62968   5.436956   3.138693 H        1 UNL1     0.0524
     123 H         -2.398159   4.544164   2.21132 H        1 UNL1     0.0524
@<TRIPOS>BOND
     1     1     2    1
     2     1    42    1
     3     2     3    2
     4     3     4    1
     5     4     5    2
     6     5     7    1
     7     6    75    1
     8     6    76    1
     9     6    77    1
    10     7     9   am
    11     9    10    1
    12    10    11    2
    13    10    43    1
    14    11    14    1
    15    11    15    1
    16    12    13   ar
    17    12    27   ar
    18    12    43    1
    19    13    14    1
    20    13    30   ar
    21    14    17    2
    22    15    16    1
    23    16    17    1
    24    16    18    1
    25    16    22    1
    26    18    19    1
    27    19    20    1
    28    20    21    1
    29    21    22    1
    30    23    24    1
    31    23    88    1
    32    23    89    1
    33    24    25    1
    34    24    26    1
    35    24    90    1
    36    25    91    1
    37    25    92    1
    38    25    93    1
    39    26    94    1
    40    26    95    1
    41    26    96    1
    42    27    28   ar
    43    28    29   ar
    44    29    30   ar
    45    29    31    1
    46    30    33    1
    47    31    32    1
    48    32    33    1
    49    32    35    1
    50    34    97    1
    51    34    98    1
    52    34    99    1
    53    35    61    1
    54    36    37    1
    55    36    60    1
    56    37    38    1
    57    38    39    1
    58    39    40    1
    59    40    41    1
    60    41    42    1
    61    45   100    1
    62    47   101    1
    63    47   102    1
    64    47   103    1
    65    48   104    1
    66    49   105    1
    67    49   106    1
    68    49   107    1
    69    50   108    1
    70    51    59    1
    71    52   109    1
    72    52   110    1
    73    52   111    1
    74    53    54    1
    75    54    55    2
    76    54    56    1
    77    56   112    1
    78    56   113    1
    79    56   114    1
    80    57   115    1
    81    57   116    1
    82    57   117    1
    83    58   118    1
    84    58   119    1
    85    58   120    1
    86    59   121    1
    87    59   122    1
    88    59   123    1
    89    60    61    2
    90     1    47    1
    91     1    62    1
    92     2    63    1
    93     3    64    1
    94     4    65    1
    95     5     6    1
    96     7     8    2
    97     9    78    1
    98    15    79    1
    99    18    80    1
   100    18    81    1
   101    19    82    1
   102    19    83    1
   103    20    23    1
   104    21    84    1
   105    21    85    1
   106    22    86    1
   107    22    87    1
   108    27    45    1
   109    28    34    1
   110    32    58    1
   111    33    46    2
   112    36    51    1
   113    36    66    1
   114    37    52    1
   115    37    67    1
   116    38    53    1
   117    38    68    1
   118    42    48    1
   119    42    72    1
   120    43    44    2
   121    60    73    1
   122    61    74    1
   123    39    69    1
   124    39    57    1
   125    40    70    1
   126    40    50    1
   127    41    71    1
   128    41    49    1
