@<TRIPOS>MOLECULE
*****
 123 128 0 0 0
SMALL
GASTEIGER

@<TRIPOS>ATOM
     1 C         -1.858622   3.40018   -1.884257 C.3        1 UNL1     0.0009
     2 C         -3.267738   4.427867   -1.255535 C.2        1 UNL1     -0.0787
     3 C         -4.656999   4.829774   -1.322385 C.2        1 UNL1     -0.0649
     4 C         -5.494085   5.859543   -0.27109 C.2        1 UNL1     -0.0542
     5 C         -6.772747   6.253665   0.194495 C.2        1 UNL1     0.0115
     6 C         -8.299257   6.119591   -0.06068 C.3        1 UNL1     -0.0348
     7 C         -6.881609   7.054427   1.581549 C.2        1 UNL1     0.2441
     8 O         -7.055665   8.263907   1.639764 O.2        1 UNL1     -0.2702
     9 N         -7.025291   6.242936   2.720403 N.am        1 UNL1     -0.2772
     10 C         -5.791675   5.883657   3.212777 C.2        1 UNL1     0.1049
     11 C         -5.210923   4.85037   2.630311 C.2        1 UNL1     0.0801
     12 C         -3.564076   6.820677   3.858635 C.ar        1 UNL1     0.0753
     13 C         -2.984857   5.799899   3.039413 C.ar        1 UNL1     0.0305
     14 C         -3.786354   4.701402   2.504661 C.2        1 UNL1     0.0924
     15 N         -5.712964   3.95069   1.767143 N.pl3        1 UNL1     -0.3170
     16 C         -4.719023   2.929297   1.569426 C.3        1 UNL1     0.1275
     17 N         -3.404622   3.627875   1.818552 N.2        1 UNL1     -0.2557
     18 C         -4.880877   1.916234   2.698677 C.3        1 UNL1     0.0016
     19 C         -6.313568   1.40735   2.693863 C.3        1 UNL1     0.0026
     20 N         -6.589275   0.798256   1.400024 N.3        1 UNL1     -0.3018
     21 C         -6.400736   1.678985   0.245408 C.3        1 UNL1     0.0026
     22 C         -4.953823   2.17482   0.267435 C.3        1 UNL1     0.0016
     23 C         -7.81324   0.02206   1.391468 C.3        1 UNL1     0.0012
     24 C         -9.030694   0.933671   1.611759 C.3        1 UNL1     -0.0339
     25 C         -9.135719   2.00641   0.515283 C.3        1 UNL1     -0.0615
     26 C         -10.296714   0.09936   1.700638 C.3        1 UNL1     -0.0615
     27 C         -2.774144   7.79553   4.463438 C.ar        1 UNL1     0.1347
     28 C         -1.395307   7.828766   4.35502 C.ar        1 UNL1     0.0342
     29 C         -0.851691   6.843164   3.504 C.ar        1 UNL1     0.1435
     30 C         -1.63413   5.882158   2.862537 C.ar        1 UNL1     0.0774
     31 O         0.483267   6.675698   3.382148 O.3        1 UNL1     -0.4436
     32 C         0.635688   5.349566   2.85393 C.3        1 UNL1     0.3143
     33 C         -0.680281   5.042608   2.168208 C.2        1 UNL1     0.2504
     34 C         -0.467064   8.68433   5.1714 C.3        1 UNL1     -0.0327
     35 O         1.635524   5.411459   1.829357 O.2        1 UNL1     -0.4528
     36 C         3.317821   2.008872   1.810097 C.3        1 UNL1     0.0854
     37 C         2.677408   0.581938   1.606986 C.3        1 UNL1     0.0236
     38 C         3.325271   -0.287677   0.425552 C.3        1 UNL1     0.1131
     39 C         3.494296   0.346017   -1.013938 C.3        1 UNL1     0.0200
     40 C         2.264157   1.247096   -1.690143 C.3        1 UNL1     0.0661
     41 C         0.63565   0.784047   -1.795778 C.3        1 UNL1     0.0091
     42 C         -0.894477   1.794892   -1.747749 C.3        1 UNL1     0.0661
     43 C         -5.02412   6.754196   4.115759 C.2        1 UNL1     0.2131
     44 O         -5.565077   7.288686   5.066771 O.2        1 UNL1     -0.2851
     45 O         -3.421213   8.779909   5.207573 O.3        1 UNL1     -0.5056
     46 O         -0.890293   4.291066   1.242501 O.2        1 UNL1     -0.2836
     47 C         -1.336567   3.967517   -3.231687 C.3        1 UNL1     -0.0566
     48 O         -1.502434   1.136757   -2.929427 O.3        1 UNL1     -0.3909
     49 C         0.406953   -0.405887   -0.890654 C.3        1 UNL1     -0.0577
     50 O         2.356915   2.600137   -1.292147 O.3        1 UNL1     -0.3910
     51 O         4.249144   2.411147   0.831199 O.3        1 UNL1     -0.3753
     52 C         1.138874   0.589645   1.885914 C.3        1 UNL1     -0.0564
     53 O         2.953842   -1.740877   0.476326 O.3        1 UNL1     -0.4608
     54 C         3.771732   -2.783295   0.126543 C.2        1 UNL1     0.3042
     55 O         3.86971   -3.317866   -0.977302 O.2        1 UNL1     -0.2512
     56 C         4.665174   -3.247058   1.24162 C.3        1 UNL1     0.0332
     57 C         4.982842   0.922301   -1.115442 C.3        1 UNL1     -0.0567
     58 C         0.795024   4.409426   4.071419 C.3        1 UNL1     0.0210
     59 C         5.617137   2.247214   1.202127 C.3        1 UNL1     0.0372
     60 C         2.340454   3.121839   1.955769 C.2        1 UNL1     -0.0208
     61 C         2.323053   4.335031   1.402048 C.2        1 UNL1     0.0882
     62 H         -1.222902   3.825487   -1.098327 H        1 UNL1     0.0365
     63 H         -2.758551   5.032279   -0.501953 H        1 UNL1     0.0576
     64 H         -5.360258   4.347317   -2.004859 H        1 UNL1     0.0615
     65 H         -4.701265   6.344283   0.305058 H        1 UNL1     0.0622
     66 H         3.843076   1.94113   2.773199 H        1 UNL1     0.0645
     67 H         2.998066   0.014861   2.498144 H        1 UNL1     0.0362
     68 H         4.347805   -0.397898   0.817725 H        1 UNL1     0.0741
     69 H         3.62605   -0.452128   -1.732279 H        1 UNL1     0.0359
     70 H         2.587624   1.247337   -2.748646 H        1 UNL1     0.0600
     71 H         0.636214   0.301418   -2.792787 H        1 UNL1     0.0348
     72 H         -0.079779   2.489674   -1.998472 H        1 UNL1     0.0602
     73 H         1.641007   2.875218   2.715506 H        1 UNL1     0.0628
     74 H         2.966682   4.646324   0.578594 H        1 UNL1     0.1022
     75 H         -8.561768   5.066485   -0.32353 H        1 UNL1     0.0279
     76 H         -8.952058   6.319377   0.786081 H        1 UNL1     0.0279
     77 H         -8.628484   6.656591   -0.962314 H        1 UNL1     0.0279
     78 H         -7.516599   5.387132   2.470815 H        1 UNL1     0.1553
     79 H         -6.694918   3.78493   1.643766 H        1 UNL1     0.1484
     80 H         -4.164954   1.098689   2.550896 H        1 UNL1     0.0317
     81 H         -4.644019   2.369002   3.667465 H        1 UNL1     0.0317
     82 H         -7.031753   2.210827   2.914197 H        1 UNL1     0.0428
     83 H         -6.407464   0.687801   3.507793 H        1 UNL1     0.0428
     84 H         -6.536579   1.175752   -0.71694 H        1 UNL1     0.0428
     85 H         -7.138618   2.492939   0.227353 H        1 UNL1     0.0428
     86 H         -4.815173   2.70454   -0.656774 H        1 UNL1     0.0317
     87 H         -4.265309   1.325575   0.178963 H        1 UNL1     0.0317
     88 H         -7.907828   -0.455668   0.407535 H        1 UNL1     0.0429
     89 H         -7.7806   -0.782223   2.137682 H        1 UNL1     0.0429
     90 H         -8.93338   1.434642   2.582208 H        1 UNL1     0.0308
     91 H         -8.19222   2.113207   -0.028323 H        1 UNL1     0.0233
     92 H         -9.931072   1.75944   -0.191843 H        1 UNL1     0.0233
     93 H         -9.383013   2.99505   0.920587 H        1 UNL1     0.0233
     94 H         -10.617526   -0.208061   0.699434 H        1 UNL1     0.0233
     95 H         -10.108134   -0.804558   2.286583 H        1 UNL1     0.0233
     96 H         -11.111637   0.659303   2.167899 H        1 UNL1     0.0233
     97 H         -0.852114   8.864577   6.170638 H        1 UNL1     0.0280
     98 H         0.515742   8.214626   5.308246 H        1 UNL1     0.0280
     99 H         -0.328892   9.658017   4.673468 H        1 UNL1     0.0280
     100 H         -4.311891   8.9426   4.950966 H        1 UNL1     0.2922
     101 H         -0.410733   4.51768   -3.064928 H        1 UNL1     0.0236
     102 H         -2.077824   4.565247   -3.761065 H        1 UNL1     0.0236
     103 H         -1.063041   3.167464   -3.939707 H        1 UNL1     0.0236
     104 H         -1.182406   1.605185   -3.725119 H        1 UNL1     0.2098
     105 H         -0.300454   -1.135058   -1.27756 H        1 UNL1     0.0234
     106 H         1.316388   -0.90351   -0.554162 H        1 UNL1     0.0234
     107 H         0.0   0.0   0.0 H        1 UNL1     0.0234
     108 H         1.775297   3.116729   -1.882589 H        1 UNL1     0.2098
     109 H         0.751048   -0.414697   2.106367 H        1 UNL1     0.0234
     110 H         0.850237   1.277992   2.687544 H        1 UNL1     0.0234
     111 H         0.571355   0.942778   1.014613 H        1 UNL1     0.0234
     112 H         4.06015   -3.553146   2.100457 H        1 UNL1     0.0342
     113 H         5.330497   -4.049498   0.926536 H        1 UNL1     0.0342
     114 H         5.290603   -2.399857   1.555076 H        1 UNL1     0.0342
     115 H         5.525203   0.503582   -1.974341 H        1 UNL1     0.0234
     116 H         5.033364   2.010122   -1.193817 H        1 UNL1     0.0234
     117 H         5.63321   0.610467   -0.280144 H        1 UNL1     0.0234
     118 H         -0.180096   4.090832   4.479641 H        1 UNL1     0.0309
     119 H         1.398968   3.522878   3.853504 H        1 UNL1     0.0309
     120 H         1.276434   4.902445   4.923055 H        1 UNL1     0.0309
     121 H         6.163004   1.926292   0.315337 H        1 UNL1     0.0524
     122 H         6.072355   3.189758   1.54915 H        1 UNL1     0.0524
     123 H         5.706896   1.502169   1.987585 H        1 UNL1     0.0524
@<TRIPOS>BOND
     1     1     2    1
     2     1    42    1
     3     2     3    2
     4     3     4    1
     5     4     5    2
     6     5     7    1
     7     6    75    1
     8     6    76    1
     9     6    77    1
    10     7     9   am
    11     9    10    1
    12    10    11    2
    13    10    43    1
    14    11    14    1
    15    11    15    1
    16    12    13   ar
    17    12    27   ar
    18    12    43    1
    19    13    14    1
    20    13    30   ar
    21    14    17    2
    22    15    16    1
    23    16    17    1
    24    16    18    1
    25    16    22    1
    26    18    19    1
    27    19    20    1
    28    20    21    1
    29    21    22    1
    30    23    24    1
    31    23    88    1
    32    23    89    1
    33    24    25    1
    34    24    26    1
    35    24    90    1
    36    25    91    1
    37    25    92    1
    38    25    93    1
    39    26    94    1
    40    26    95    1
    41    26    96    1
    42    27    28   ar
    43    28    29   ar
    44    29    30   ar
    45    29    31    1
    46    30    33    1
    47    31    32    1
    48    32    33    1
    49    32    35    1
    50    34    97    1
    51    34    98    1
    52    34    99    1
    53    35    61    1
    54    36    37    1
    55    36    60    1
    56    37    38    1
    57    38    39    1
    58    39    40    1
    59    40    41    1
    60    41    42    1
    61    45   100    1
    62    47   101    1
    63    47   102    1
    64    47   103    1
    65    48   104    1
    66    49   105    1
    67    49   106    1
    68    49   107    1
    69    50   108    1
    70    51    59    1
    71    52   109    1
    72    52   110    1
    73    52   111    1
    74    53    54    1
    75    54    55    2
    76    54    56    1
    77    56   112    1
    78    56   113    1
    79    56   114    1
    80    57   115    1
    81    57   116    1
    82    57   117    1
    83    58   118    1
    84    58   119    1
    85    58   120    1
    86    59   121    1
    87    59   122    1
    88    59   123    1
    89    60    61    2
    90     1    47    1
    91     1    62    1
    92     2    63    1
    93     3    64    1
    94     4    65    1
    95     5     6    1
    96     7     8    2
    97     9    78    1
    98    15    79    1
    99    18    80    1
   100    18    81    1
   101    19    82    1
   102    19    83    1
   103    20    23    1
   104    21    84    1
   105    21    85    1
   106    22    86    1
   107    22    87    1
   108    27    45    1
   109    28    34    1
   110    32    58    1
   111    33    46    2
   112    36    51    1
   113    36    66    1
   114    37    52    1
   115    37    67    1
   116    38    53    1
   117    38    68    1
   118    42    48    1
   119    42    72    1
   120    43    44    2
   121    60    73    1
   122    61    74    1
   123    39    69    1
   124    39    57    1
   125    40    70    1
   126    40    50    1
   127    41    71    1
   128    41    49    1
