@<TRIPOS>MOLECULE
*****
 123 128 0 0 0
SMALL
GASTEIGER

@<TRIPOS>ATOM
     1 C         5.165713   1.757105   0.476725 C.3        1 UNL1     0.0009
     2 C         6.598599   2.565789   -0.377619 C.2        1 UNL1     -0.0787
     3 C         7.878693   2.469875   -1.047102 C.2        1 UNL1     -0.0649
     4 C         8.751918   3.706633   -1.804905 C.2        1 UNL1     -0.0542
     5 C         9.768727   4.001196   -2.746398 C.2        1 UNL1     0.0115
     6 C         10.895421   3.377828   -3.615476 C.3        1 UNL1     -0.0348
     7 C         9.859876   5.484768   -3.352777 C.2        1 UNL1     0.2441
     8 O         10.683512   6.307661   -2.97728 O.2        1 UNL1     -0.2702
     9 N         9.105912   5.69082   -4.521208 N.am        1 UNL1     -0.2772
     10 C         7.823485   6.07532   -4.203616 C.2        1 UNL1     0.1049
     11 C         6.980142   5.102448   -3.909484 C.2        1 UNL1     0.0801
     12 C         6.526583   7.679471   -2.788668 C.ar        1 UNL1     0.0753
     13 C         5.770675   6.550198   -2.339277 C.ar        1 UNL1     0.0305
     14 C         5.88786   5.244861   -2.985354 C.2        1 UNL1     0.0924
     15 N         7.104469   3.773715   -4.069289 N.pl3        1 UNL1     -0.3170
     16 C         5.836511   3.172386   -3.751579 C.3        1 UNL1     0.1275
     17 N         5.201407   4.126319   -2.769551 N.2        1 UNL1     -0.2557
     18 C         4.979891   3.230398   -5.012745 C.3        1 UNL1     0.0016
     19 C         5.732599   2.547841   -6.143734 C.3        1 UNL1     0.0026
     20 N         6.006115   1.17008   -5.759036 N.3        1 UNL1     -0.3018
     21 C         6.773338   1.010605   -4.521981 C.3        1 UNL1     0.0026
     22 C         5.996733   1.699553   -3.398536 C.3        1 UNL1     0.0016
     23 C         6.448727   0.351565   -6.870238 C.3        1 UNL1     0.0012
     24 C         5.290836   0.100461   -7.849009 C.3        1 UNL1     -0.0339
     25 C         5.361383   1.047317   -9.058366 C.3        1 UNL1     -0.0615
     26 C         5.279275   -1.356058   -8.279355 C.3        1 UNL1     -0.0615
     27 C         6.321424   8.946686   -2.248117 C.ar        1 UNL1     0.1347
     28 C         5.364727   9.214412   -1.285255 C.ar        1 UNL1     0.0342
     29 C         4.666364   8.078696   -0.823087 C.ar        1 UNL1     0.1435
     30 C         4.886427   6.797162   -1.32951 C.ar        1 UNL1     0.0774
     31 O         3.627679   8.190336   0.033463 O.3        1 UNL1     -0.4436
     32 C         2.907605   6.956376   -0.106923 C.3        1 UNL1     0.3143
     33 C         3.920968   5.965067   -0.642289 C.2        1 UNL1     0.2504
     34 C         4.916944   10.579669   -0.842915 C.3        1 UNL1     -0.0327
     35 O         2.551522   6.518743   1.210246 O.2        1 UNL1     -0.4528
     36 C         -0.689507   4.581362   0.82246 C.3        1 UNL1     0.0854
     37 C         -0.99537   3.320514   -0.074329 C.3        1 UNL1     0.0236
     38 C         -1.591563   2.058286   0.715024 C.3        1 UNL1     0.1131
     39 C         -0.861143   1.528202   2.014165 C.3        1 UNL1     0.0200
     40 C         0.800398   1.385361   2.050446 C.3        1 UNL1     0.0661
     41 C         1.757605   0.618401   0.878637 C.3        1 UNL1     0.0091
     42 C         3.462944   0.983893   0.309745 C.3        1 UNL1     0.0661
     43 C         7.473686   7.47361   -3.912446 C.2        1 UNL1     0.2131
     44 O         7.870002   8.372524   -4.631907 O.2        1 UNL1     -0.2851
     45 O         7.130657   9.983237   -2.708707 O.3        1 UNL1     -0.5056
     46 O         3.939304   4.761527   -0.511872 O.2        1 UNL1     -0.2836
     47 C         5.566975   1.327911   1.913653 C.3        1 UNL1     -0.0566
     48 O         3.914048   -0.426499   0.389855 O.3        1 UNL1     -0.3909
     49 C         0.92018   0.384763   -0.358952 C.3        1 UNL1     -0.0577
     50 O         1.399753   2.604103   2.441811 O.3        1 UNL1     -0.3910
     51 O         -0.809219   4.391134   2.214191 O.3        1 UNL1     -0.3753
     52 C         0.045973   3.162039   -1.229942 C.3        1 UNL1     -0.0564
     53 O         -2.195096   1.018547   -0.183316 O.3        1 UNL1     -0.4608
     54 C         -2.42638   -0.288671   0.156711 C.2        1 UNL1     0.3042
     55 O         -1.855912   -1.286658   -0.281954 O.2        1 UNL1     -0.2512
     56 C         -3.464498   -0.456399   1.229508 C.3        1 UNL1     0.0332
     57 C         -1.579571   2.195702   3.277684 C.3        1 UNL1     -0.0567
     58 C         1.828847   7.199982   -1.187879 C.3        1 UNL1     0.0210
     59 C         -1.122174   5.569442   2.955484 C.3        1 UNL1     0.0372
     60 C         0.637781   5.212672   0.58812 C.2        1 UNL1     -0.0208
     61 C         1.552544   5.649177   1.454962 C.2        1 UNL1     0.0882
     62 H         4.688445   2.740478   0.565633 H        1 UNL1     0.0365
     63 H         6.330943   3.619126   -0.27127 H        1 UNL1     0.0576
     64 H         8.337274   1.503828   -1.269732 H        1 UNL1     0.0615
     65 H         8.26436   4.621148   -1.456432 H        1 UNL1     0.0622
     66 H         -1.436277   5.326752   0.514606 H        1 UNL1     0.0645
     67 H         -1.863206   3.628618   -0.683009 H        1 UNL1     0.0362
     68 H         -2.53831   2.493531   1.069642 H        1 UNL1     0.0741
     69 H         -1.190444   0.516517   2.210283 H        1 UNL1     0.0359
     70 H         0.915829   0.724997   2.931159 H        1 UNL1     0.0600
     71 H         1.804102   -0.402797   1.305194 H        1 UNL1     0.0348
     72 H         3.359136   1.471684   1.289847 H        1 UNL1     0.0602
     73 H         0.752319   5.410367   -0.448725 H        1 UNL1     0.0628
     74 H         1.538475   5.438223   2.524793 H        1 UNL1     0.1022
     75 H         10.923481   2.269169   -3.484619 H        1 UNL1     0.0279
     76 H         10.791897   3.483983   -4.693012 H        1 UNL1     0.0279
     77 H         11.901828   3.661896   -3.274668 H        1 UNL1     0.0279
     78 H         9.043791   4.820899   -5.046047 H        1 UNL1     0.1553
     79 H         7.768624   3.346959   -4.688733 H        1 UNL1     0.1484
     80 H         4.019984   2.737851   -4.815917 H        1 UNL1     0.0317
     81 H         4.750801   4.266847   -5.282827 H        1 UNL1     0.0317
     82 H         6.661665   3.080719   -6.394314 H        1 UNL1     0.0428
     83 H         5.104748   2.602182   -7.033621 H        1 UNL1     0.0428
     84 H         6.896262   -0.032225   -4.213423 H        1 UNL1     0.0428
     85 H         7.802521   1.380341   -4.628726 H        1 UNL1     0.0428
     86 H         6.516222   1.449812   -2.492032 H        1 UNL1     0.0317
     87 H         5.018438   1.220291   -3.270694 H        1 UNL1     0.0317
     88 H         7.242358   0.894785   -7.399725 H        1 UNL1     0.0429
     89 H         6.883889   -0.593586   -6.520813 H        1 UNL1     0.0429
     90 H         4.339391   0.26704   -7.330149 H        1 UNL1     0.0308
     91 H         6.315025   0.948741   -9.585578 H        1 UNL1     0.0233
     92 H         4.54407   0.845949   -9.754827 H        1 UNL1     0.0233
     93 H         5.264763   2.101035   -8.769961 H        1 UNL1     0.0233
     94 H         4.584968   -1.497597   -9.114664 H        1 UNL1     0.0233
     95 H         6.276296   -1.654276   -8.615475 H        1 UNL1     0.0233
     96 H         4.97221   -2.011865   -7.459845 H        1 UNL1     0.0233
     97 H         4.119546   10.528545   -0.107542 H        1 UNL1     0.0280
     98 H         5.727743   11.147435   -0.368045 H        1 UNL1     0.0280
     99 H         4.548597   11.147192   -1.713163 H        1 UNL1     0.0280
     100 H         6.661475   10.733685   -3.028579 H        1 UNL1     0.2922
     101 H         4.703206   0.904154   2.425502 H        1 UNL1     0.0236
     102 H         6.029226   2.130491   2.487387 H        1 UNL1     0.0236
     103 H         6.315362   0.517912   1.910143 H        1 UNL1     0.0236
     104 H         4.330975   -0.553594   1.264492 H        1 UNL1     0.2098
     105 H         0.704387   1.283382   -0.931428 H        1 UNL1     0.0234
     106 H         1.288928   -0.4025   -1.016347 H        1 UNL1     0.0234
     107 H         0.0   -0.0   0.0 H        1 UNL1     0.0234
     108 H         1.213104   3.257556   1.740433 H        1 UNL1     0.2098
     109 H         1.07353   3.062541   -0.853193 H        1 UNL1     0.0234
     110 H         -0.180413   2.327117   -1.901803 H        1 UNL1     0.0234
     111 H         0.05501   4.039798   -1.889793 H        1 UNL1     0.0234
     112 H         -3.585406   -1.517518   1.467738 H        1 UNL1     0.0342
     113 H         -3.227433   0.119973   2.122502 H        1 UNL1     0.0342
     114 H         -4.423231   -0.087341   0.839904 H        1 UNL1     0.0342
     115 H         -2.648672   1.94567   3.318865 H        1 UNL1     0.0234
     116 H         -1.139841   1.91643   4.237212 H        1 UNL1     0.0234
     117 H         -1.620111   3.297505   3.229432 H        1 UNL1     0.0234
     118 H         0.927572   7.683909   -0.772517 H        1 UNL1     0.0309
     119 H         2.194344   7.790064   -2.034293 H        1 UNL1     0.0309
     120 H         1.441656   6.267528   -1.612988 H        1 UNL1     0.0309
     121 H         -0.285577   6.259141   2.846964 H        1 UNL1     0.0524
     122 H         -2.023028   6.07749   2.572881 H        1 UNL1     0.0524
     123 H         -1.273226   5.325317   4.003187 H        1 UNL1     0.0524
@<TRIPOS>BOND
     1     1     2    1
     2     1    42    1
     3     2     3    2
     4     3     4    1
     5     4     5    2
     6     5     7    1
     7     6    75    1
     8     6    76    1
     9     6    77    1
    10     7     9   am
    11     9    10    1
    12    10    11    2
    13    10    43    1
    14    11    14    1
    15    11    15    1
    16    12    13   ar
    17    12    27   ar
    18    12    43    1
    19    13    14    1
    20    13    30   ar
    21    14    17    2
    22    15    16    1
    23    16    17    1
    24    16    18    1
    25    16    22    1
    26    18    19    1
    27    19    20    1
    28    20    21    1
    29    21    22    1
    30    23    24    1
    31    23    88    1
    32    23    89    1
    33    24    25    1
    34    24    26    1
    35    24    90    1
    36    25    91    1
    37    25    92    1
    38    25    93    1
    39    26    94    1
    40    26    95    1
    41    26    96    1
    42    27    28   ar
    43    28    29   ar
    44    29    30   ar
    45    29    31    1
    46    30    33    1
    47    31    32    1
    48    32    33    1
    49    32    35    1
    50    34    97    1
    51    34    98    1
    52    34    99    1
    53    35    61    1
    54    36    37    1
    55    36    60    1
    56    37    38    1
    57    38    39    1
    58    39    40    1
    59    40    41    1
    60    41    42    1
    61    45   100    1
    62    47   101    1
    63    47   102    1
    64    47   103    1
    65    48   104    1
    66    49   105    1
    67    49   106    1
    68    49   107    1
    69    50   108    1
    70    51    59    1
    71    52   109    1
    72    52   110    1
    73    52   111    1
    74    53    54    1
    75    54    55    2
    76    54    56    1
    77    56   112    1
    78    56   113    1
    79    56   114    1
    80    57   115    1
    81    57   116    1
    82    57   117    1
    83    58   118    1
    84    58   119    1
    85    58   120    1
    86    59   121    1
    87    59   122    1
    88    59   123    1
    89    60    61    2
    90     1    47    1
    91     1    62    1
    92     2    63    1
    93     3    64    1
    94     4    65    1
    95     5     6    1
    96     7     8    2
    97     9    78    1
    98    15    79    1
    99    18    80    1
   100    18    81    1
   101    19    82    1
   102    19    83    1
   103    20    23    1
   104    21    84    1
   105    21    85    1
   106    22    86    1
   107    22    87    1
   108    27    45    1
   109    28    34    1
   110    32    58    1
   111    33    46    2
   112    36    51    1
   113    36    66    1
   114    37    52    1
   115    37    67    1
   116    38    53    1
   117    38    68    1
   118    42    48    1
   119    42    72    1
   120    43    44    2
   121    60    73    1
   122    61    74    1
   123    39    69    1
   124    39    57    1
   125    40    70    1
   126    40    50    1
   127    41    71    1
   128    41    49    1
