@<TRIPOS>MOLECULE
*****
 123 128 0 0 0
SMALL
GASTEIGER

@<TRIPOS>ATOM
     1 C         1.96139   -3.781035   -2.577227 C.3        1 UNL1     0.0009
     2 C         3.664959   -4.283729   -3.108442 C.2        1 UNL1     -0.0787
     3 C         4.62864   -4.541453   -4.157701 C.2        1 UNL1     -0.0649
     4 C         6.272602   -4.911005   -3.992848 C.2        1 UNL1     -0.0542
     5 C         7.528642   -4.934681   -4.647738 C.2        1 UNL1     0.0115
     6 C         8.230266   -4.786464   -6.025809 C.3        1 UNL1     -0.0348
     7 C         8.864987   -5.018702   -3.762237 C.2        1 UNL1     0.2441
     8 O         9.501066   -6.053088   -3.613994 O.2        1 UNL1     -0.2702
     9 N         9.399708   -3.775017   -3.38346 N.am        1 UNL1     -0.2772
     10 C         8.838149   -3.350914   -2.201043 C.2        1 UNL1     0.1049
     11 C         7.668448   -2.745184   -2.296506 C.2        1 UNL1     0.0801
     12 C         8.301266   -4.105161   0.122791 C.ar        1 UNL1     0.0753
     13 C         6.976206   -3.616011   -0.10863 C.ar        1 UNL1     0.0305
     14 C         6.654609   -2.801765   -1.278514 C.2        1 UNL1     0.0924
     15 N         7.021203   -2.28237   -3.379743 N.pl3        1 UNL1     -0.3170
     16 C         5.866855   -1.554254   -2.92413 C.3        1 UNL1     0.1275
     17 N         5.519191   -2.187836   -1.599205 N.2        1 UNL1     -0.2557
     18 C         6.324375   -0.133725   -2.607157 C.3        1 UNL1     0.0016
     19 C         6.987522   0.451017   -3.84405 C.3        1 UNL1     0.0026
     20 N         6.026685   0.441941   -4.938463 N.3        1 UNL1     -0.3018
     21 C         5.481969   -0.874598   -5.27666 C.3        1 UNL1     0.0026
     22 C         4.816599   -1.441377   -4.021295 C.3        1 UNL1     0.0016
     23 C         6.451754   1.243451   -6.068747 C.3        1 UNL1     0.0012
     24 C         7.890034   0.883886   -6.473492 C.3        1 UNL1     -0.0339
     25 C         7.918472   0.041844   -7.759654 C.3        1 UNL1     -0.0615
     26 C         8.722741   2.146351   -6.61335 C.3        1 UNL1     -0.0615
     27 C         8.627522   -4.777025   1.298493 C.ar        1 UNL1     0.1347
     28 C         7.72716   -4.983834   2.328361 C.ar        1 UNL1     0.0342
     29 C         6.416377   -4.53685   2.05777 C.ar        1 UNL1     0.1435
     30 C         6.066184   -3.894362   0.869581 C.ar        1 UNL1     0.0774
     31 O         5.452215   -4.566895   3.003548 O.3        1 UNL1     -0.4436
     32 C         4.461683   -3.636262   2.541336 C.3        1 UNL1     0.3143
     33 C         4.671511   -3.545847   1.043333 C.2        1 UNL1     0.2504
     34 C         8.065   -5.468081   3.71092 C.3        1 UNL1     -0.0327
     35 O         3.179394   -4.241746   2.747193 O.2        1 UNL1     -0.4528
     36 C         0.761922   -1.378762   3.353195 C.3        1 UNL1     0.0854
     37 C         0.435071   -0.139306   2.43426 C.3        1 UNL1     0.0236
     38 C         -1.117389   0.04733   2.0782 C.3        1 UNL1     0.1131
     39 C         -1.944536   -1.174536   1.507991 C.3        1 UNL1     0.0200
     40 C         -1.29072   -2.163231   0.334345 C.3        1 UNL1     0.0661
     41 C         -0.558421   -1.645953   -1.105714 C.3        1 UNL1     0.0091
     42 C         0.816255   -2.381324   -2.072616 C.3        1 UNL1     0.0661
     43 C         9.338971   -3.794849   -0.891672 C.2        1 UNL1     0.2131
     44 O         10.533386   -3.795931   -0.654798 O.2        1 UNL1     -0.2851
     45 O         9.92798   -5.26092   1.425349 O.3        1 UNL1     -0.5056
     46 O         3.863808   -3.270083   0.1846 O.2        1 UNL1     -0.2836
     47 C         0.955029   -4.935772   -2.829813 C.3        1 UNL1     -0.0566
     48 O         0.114378   -2.265669   -3.373811 O.3        1 UNL1     -0.3909
     49 C         -0.284651   -0.161691   -1.008191 C.3        1 UNL1     -0.0577
     50 O         -0.527388   -3.198809   0.919688 O.3        1 UNL1     -0.3910
     51 O         -0.309497   -2.260462   3.602387 O.3        1 UNL1     -0.3753
     52 C         1.56553   0.122028   1.386064 C.3        1 UNL1     -0.0564
     53 O         -1.445704   1.398254   1.51292 O.3        1 UNL1     -0.4608
     54 C         -2.587141   1.716067   0.82441 C.2        1 UNL1     0.3042
     55 O         -3.444383   2.540467   1.139591 O.2        1 UNL1     -0.2512
     56 C         -2.725898   0.984427   -0.48026 C.3        1 UNL1     0.0332
     57 C         -2.686844   -1.871909   2.741208 C.3        1 UNL1     -0.0567
     58 C         4.81325   -2.271312   3.177608 C.3        1 UNL1     0.0210
     59 C         -0.190294   -3.024846   4.801292 C.3        1 UNL1     0.0372
     60 C         1.907829   -2.213152   2.899486 C.2        1 UNL1     -0.0208
     61 C         2.032907   -3.538396   2.816859 C.2        1 UNL1     0.0882
     62 H         2.282229   -3.868528   -1.532182 H        1 UNL1     0.0365
     63 H         4.113448   -4.533252   -2.144561 H        1 UNL1     0.0576
     64 H         4.396284   -4.350636   -5.2078 H        1 UNL1     0.0615
     65 H         6.378857   -5.159644   -2.933428 H        1 UNL1     0.0622
     66 H         1.070906   -0.938028   4.31149 H        1 UNL1     0.0645
     67 H         0.617205   0.732946   3.085845 H        1 UNL1     0.0362
     68 H         -1.51768   0.224775   3.088053 H        1 UNL1     0.0741
     69 H         -2.837993   -0.79675   1.029012 H        1 UNL1     0.0359
     70 H         -2.209108   -2.665751   -0.024955 H        1 UNL1     0.0600
     71 H         -1.433969   -1.661041   -1.784054 H        1 UNL1     0.0348
     72 H         0.430775   -3.187745   -1.431987 H        1 UNL1     0.0602
     73 H         2.751731   -1.58942   2.738128 H        1 UNL1     0.0628
     74 H         1.205801   -4.242895   2.910745 H        1 UNL1     0.1022
     75 H         9.245918   -5.249976   -6.000474 H        1 UNL1     0.0279
     76 H         7.761837   -5.294421   -6.865822 H        1 UNL1     0.0279
     77 H         8.474656   -3.741903   -6.268433 H        1 UNL1     0.0279
     78 H         9.18191   -3.078616   -4.093156 H        1 UNL1     0.1553
     79 H         7.468082   -2.098064   -4.259097 H        1 UNL1     0.1484
     80 H         5.456069   0.461192   -2.299121 H        1 UNL1     0.0317
     81 H         7.023952   -0.126831   -1.764426 H        1 UNL1     0.0317
     82 H         7.900951   -0.098808   -4.114701 H        1 UNL1     0.0428
     83 H         7.307734   1.463296   -3.595446 H        1 UNL1     0.0428
     84 H         4.704785   -0.843139   -6.046599 H        1 UNL1     0.0428
     85 H         6.249166   -1.538225   -5.698944 H        1 UNL1     0.0428
     86 H         4.316998   -2.338045   -4.338112 H        1 UNL1     0.0317
     87 H         3.992562   -0.78923   -3.707029 H        1 UNL1     0.0317
     88 H         5.785658   1.023384   -6.913247 H        1 UNL1     0.0429
     89 H         6.356838   2.315919   -5.855259 H        1 UNL1     0.0429
     90 H         8.356153   0.30544   -5.667051 H        1 UNL1     0.0308
     91 H         8.88399   0.124193   -8.267685 H        1 UNL1     0.0233
     92 H         7.718401   -1.009054   -7.537858 H        1 UNL1     0.0233
     93 H         7.152401   0.353572   -8.479929 H        1 UNL1     0.0233
     94 H         8.639028   2.756322   -5.70739 H        1 UNL1     0.0233
     95 H         9.77629   1.885995   -6.7483 H        1 UNL1     0.0233
     96 H         8.395681   2.747662   -7.466242 H        1 UNL1     0.0233
     97 H         8.384336   -6.505988   3.712411 H        1 UNL1     0.0280
     98 H         8.89031   -4.89908   4.158533 H        1 UNL1     0.0280
     99 H         7.178754   -5.378275   4.360227 H        1 UNL1     0.0280
     100 H         10.53531   -4.654784   1.811836 H        1 UNL1     0.2922
     101 H         1.392152   -5.881155   -2.50914 H        1 UNL1     0.0236
     102 H         0.600047   -4.977546   -3.859001 H        1 UNL1     0.0236
     103 H         0.04134   -4.829298   -2.221513 H        1 UNL1     0.0236
     104 H         -0.587302   -2.945587   -3.391903 H        1 UNL1     0.2098
     105 H         0.525628   0.188192   -1.64289 H        1 UNL1     0.0234
     106 H         -1.162432   0.47238   -1.132216 H        1 UNL1     0.0234
     107 H         0.0   0.0   0.0 H        1 UNL1     0.0234
     108 H         0.029046   -2.793159   1.612217 H        1 UNL1     0.2098
     109 H         1.23396   0.782335   0.572573 H        1 UNL1     0.0234
     110 H         2.482167   0.522389   1.832418 H        1 UNL1     0.0234
     111 H         1.890072   -0.807932   0.900478 H        1 UNL1     0.0234
     112 H         -3.752752   0.625228   -0.598129 H        1 UNL1     0.0342
     113 H         -2.427181   1.598935   -1.328194 H        1 UNL1     0.0342
     114 H         -2.063493   0.108233   -0.454404 H        1 UNL1     0.0342
     115 H         -3.002028   -2.896816   2.501594 H        1 UNL1     0.0234
     116 H         -2.086988   -1.917386   3.652335 H        1 UNL1     0.0234
     117 H         -3.654422   -1.404885   2.993443 H        1 UNL1     0.0234
     118 H         4.270251   -2.10292   4.124076 H        1 UNL1     0.0309
     119 H         5.886109   -2.142361   3.352385 H        1 UNL1     0.0309
     120 H         4.503609   -1.42497   2.554764 H        1 UNL1     0.0309
     121 H         0.470261   -3.86577   4.591841 H        1 UNL1     0.0524
     122 H         0.260772   -2.445254   5.62388 H        1 UNL1     0.0524
     123 H         -1.165838   -3.383982   5.116617 H        1 UNL1     0.0524
@<TRIPOS>BOND
     1     1     2    1
     2     1    42    1
     3     2     3    2
     4     3     4    1
     5     4     5    2
     6     5     7    1
     7     6    75    1
     8     6    76    1
     9     6    77    1
    10     7     9   am
    11     9    10    1
    12    10    11    2
    13    10    43    1
    14    11    14    1
    15    11    15    1
    16    12    13   ar
    17    12    27   ar
    18    12    43    1
    19    13    14    1
    20    13    30   ar
    21    14    17    2
    22    15    16    1
    23    16    17    1
    24    16    18    1
    25    16    22    1
    26    18    19    1
    27    19    20    1
    28    20    21    1
    29    21    22    1
    30    23    24    1
    31    23    88    1
    32    23    89    1
    33    24    25    1
    34    24    26    1
    35    24    90    1
    36    25    91    1
    37    25    92    1
    38    25    93    1
    39    26    94    1
    40    26    95    1
    41    26    96    1
    42    27    28   ar
    43    28    29   ar
    44    29    30   ar
    45    29    31    1
    46    30    33    1
    47    31    32    1
    48    32    33    1
    49    32    35    1
    50    34    97    1
    51    34    98    1
    52    34    99    1
    53    35    61    1
    54    36    37    1
    55    36    60    1
    56    37    38    1
    57    38    39    1
    58    39    40    1
    59    40    41    1
    60    41    42    1
    61    45   100    1
    62    47   101    1
    63    47   102    1
    64    47   103    1
    65    48   104    1
    66    49   105    1
    67    49   106    1
    68    49   107    1
    69    50   108    1
    70    51    59    1
    71    52   109    1
    72    52   110    1
    73    52   111    1
    74    53    54    1
    75    54    55    2
    76    54    56    1
    77    56   112    1
    78    56   113    1
    79    56   114    1
    80    57   115    1
    81    57   116    1
    82    57   117    1
    83    58   118    1
    84    58   119    1
    85    58   120    1
    86    59   121    1
    87    59   122    1
    88    59   123    1
    89    60    61    2
    90     1    47    1
    91     1    62    1
    92     2    63    1
    93     3    64    1
    94     4    65    1
    95     5     6    1
    96     7     8    2
    97     9    78    1
    98    15    79    1
    99    18    80    1
   100    18    81    1
   101    19    82    1
   102    19    83    1
   103    20    23    1
   104    21    84    1
   105    21    85    1
   106    22    86    1
   107    22    87    1
   108    27    45    1
   109    28    34    1
   110    32    58    1
   111    33    46    2
   112    36    51    1
   113    36    66    1
   114    37    52    1
   115    37    67    1
   116    38    53    1
   117    38    68    1
   118    42    48    1
   119    42    72    1
   120    43    44    2
   121    60    73    1
   122    61    74    1
   123    39    69    1
   124    39    57    1
   125    40    70    1
   126    40    50    1
   127    41    71    1
   128    41    49    1
