@<TRIPOS>MOLECULE
*****
 123 128 0 0 0
SMALL
GASTEIGER

@<TRIPOS>ATOM
     1 C         5.172565   1.735949   0.479927 C.3        1 UNL1     0.0009
     2 C         6.609564   2.537976   -0.373783 C.2        1 UNL1     -0.0787
     3 C         7.88984   2.436199   -1.042051 C.2        1 UNL1     -0.0649
     4 C         8.768881   3.668706   -1.800055 C.2        1 UNL1     -0.0542
     5 C         9.787742   3.958282   -2.740877 C.2        1 UNL1     0.0115
     6 C         10.912598   3.329535   -3.60846 C.3        1 UNL1     -0.0348
     7 C         9.885609   5.440979   -3.348348 C.2        1 UNL1     0.2441
     8 O         10.712333   6.260731   -2.972771 O.2        1 UNL1     -0.2702
     9 N         9.133545   5.649241   -4.517612 N.am        1 UNL1     -0.2772
     10 C         7.852451   6.039333   -4.201464 C.2        1 UNL1     0.1049
     11 C         7.004801   5.070217   -3.907312 C.2        1 UNL1     0.0801
     12 C         6.560991   7.649997   -2.788939 C.ar        1 UNL1     0.0753
     13 C         5.799987   6.52424   -2.339327 C.ar        1 UNL1     0.0305
     14 C         5.912304   5.217913   -2.984267 C.2        1 UNL1     0.0924
     15 N         7.123732   3.74085   -4.065955 N.pl3        1 UNL1     -0.3170
     16 C         5.852998   3.145062   -3.748898 C.3        1 UNL1     0.1275
     17 N         5.221005   4.102412   -2.768189 N.2        1 UNL1     -0.2557
     18 C         4.997745   3.20564   -5.01087 C.3        1 UNL1     0.0016
     19 C         5.748605   2.519054   -6.140649 C.3        1 UNL1     0.0026
     20 N         6.016036   1.140472   -5.754618 N.3        1 UNL1     -0.3018
     21 C         6.781493   0.978785   -4.516756 C.3        1 UNL1     0.0026
     22 C         6.00677   1.671855   -3.394547 C.3        1 UNL1     0.0016
     23 C         6.456218   0.319237   -6.864779 C.3        1 UNL1     0.0012
     24 C         5.298158   0.072181   -7.84438 C.3        1 UNL1     -0.0339
     25 C         5.323895   1.074689   -9.009872 C.3        1 UNL1     -0.0615
     26 C         5.332913   -1.362877   -8.340543 C.3        1 UNL1     -0.0615
     27 C         6.360635   8.918485   -2.249574 C.ar        1 UNL1     0.1347
     28 C         5.404209   9.190959   -1.287775 C.ar        1 UNL1     0.0342
     29 C         4.700711   8.058529   -0.825329 C.ar        1 UNL1     0.1435
     30 C         4.915882   6.775688   -1.330542 C.ar        1 UNL1     0.0774
     31 O         3.661742   8.175176   0.030209 O.3        1 UNL1     -0.4436
     32 C         2.936658   6.944115   -0.109841 C.3        1 UNL1     0.3143
     33 C         3.946355   5.948169   -0.643522 C.2        1 UNL1     0.2504
     34 C         4.961727   10.55842   -0.846912 C.3        1 UNL1     -0.0327
     35 O         2.577588   6.509017   1.207357 O.2        1 UNL1     -0.4528
     36 C         -0.67114   4.584847   0.818223 C.3        1 UNL1     0.0854
     37 C         -0.98146   3.324572   -0.077841 C.3        1 UNL1     0.0236
     38 C         -1.583605   2.065466   0.711981 C.3        1 UNL1     0.1131
     39 C         -0.856552   1.533377   2.012189 C.3        1 UNL1     0.0200
     40 C         0.804347   1.383644   2.05006 C.3        1 UNL1     0.0661
     41 C         1.759388   0.611772   0.87971 C.3        1 UNL1     0.0091
     42 C         3.466738   0.969704   0.312045 C.3        1 UNL1     0.0661
     43 C         7.508223   7.439299   -3.911711 C.2        1 UNL1     0.2131
     44 O         7.908918   8.335982   -4.631531 O.2        1 UNL1     -0.2851
     45 O         7.174588   9.951289   -2.710264 O.3        1 UNL1     -0.5056
     46 O         3.959561   4.744667   -0.512136 O.2        1 UNL1     -0.2836
     47 C         5.570762   1.306228   1.91755 C.3        1 UNL1     -0.0566
     48 O         3.91189   -0.44249   0.393672 O.3        1 UNL1     -0.3909
     49 C         0.922092   0.380641   -0.358438 C.3        1 UNL1     -0.0577
     50 O         1.408428   2.600189   2.440993 O.3        1 UNL1     -0.3910
     51 O         -0.792877   4.396226   2.209996 O.3        1 UNL1     -0.3753
     52 C         0.060237   3.160842   -1.232401 C.3        1 UNL1     -0.0564
     53 O         -2.19067   1.027536   -0.186073 O.3        1 UNL1     -0.4608
     54 C         -2.4277   -0.278436   0.154783 C.2        1 UNL1     0.3042
     55 O         -1.862028   -1.279239   -0.283679 O.2        1 UNL1     -0.2512
     56 C         -3.465951   -0.440873   1.228264 C.3        1 UNL1     0.0332
     57 C         -1.573311   2.204867   3.274541 C.3        1 UNL1     -0.0567
     58 C         1.859882   7.191355   -1.191948 C.3        1 UNL1     0.0210
     59 C         -1.132521   5.570125   2.94652 C.3        1 UNL1     0.0372
     60 C         0.658974   5.210435   0.584563 C.2        1 UNL1     -0.0208
     61 C         1.574779   5.643815   1.451873 C.2        1 UNL1     0.0882
     62 H         4.69932   2.721372   0.567633 H        1 UNL1     0.0365
     63 H         6.346205   3.592504   -0.268505 H        1 UNL1     0.0576
     64 H         8.344589   1.468073   -1.263509 H        1 UNL1     0.0615
     65 H         8.28483   4.585521   -1.45274 H        1 UNL1     0.0622
     66 H         -1.414526   5.333096   0.509115 H        1 UNL1     0.0645
     67 H         -1.847466   3.635805   -0.687536 H        1 UNL1     0.0362
     68 H         -2.528845   2.504933   1.065412 H        1 UNL1     0.0741
     69 H         -1.190238   0.523228   2.208814 H        1 UNL1     0.0359
     70 H         0.916245   0.723505   2.931398 H        1 UNL1     0.0600
     71 H         1.801251   -0.409271   1.307115 H        1 UNL1     0.0348
     72 H         3.364095   1.458702   1.291668 H        1 UNL1     0.0602
     73 H         0.775253   5.406828   -0.452336 H        1 UNL1     0.0628
     74 H         1.558884   5.433772   2.521857 H        1 UNL1     0.1022
     75 H         10.954587   2.224229   -3.454933 H        1 UNL1     0.0279
     76 H         10.796973   3.412031   -4.686835 H        1 UNL1     0.0279
     77 H         11.919108   3.631863   -3.284057 H        1 UNL1     0.0279
     78 H         9.068265   4.77917   -5.041818 H        1 UNL1     0.1553
     79 H         7.786652   3.310839   -4.684471 H        1 UNL1     0.1484
     80 H         4.03562   2.717252   -4.814506 H        1 UNL1     0.0317
     81 H         4.773215   4.242818   -5.281975 H        1 UNL1     0.0317
     82 H         6.680104   3.047858   -6.390825 H        1 UNL1     0.0428
     83 H         5.121773   2.575302   -7.031137 H        1 UNL1     0.0428
     84 H         6.899797   -0.064302   -4.207264 H        1 UNL1     0.0428
     85 H         7.812301   1.344145   -4.622878 H        1 UNL1     0.0428
     86 H         6.524411   1.420673   -2.487385 H        1 UNL1     0.0317
     87 H         5.026374   1.196774   -3.267196 H        1 UNL1     0.0317
     88 H         7.252574   0.858725   -7.393989 H        1 UNL1     0.0429
     89 H         6.887128   -0.627441   -6.514219 H        1 UNL1     0.0429
     90 H         4.34666   0.181596   -7.310627 H        1 UNL1     0.0308
     91 H         6.272781   1.029256   -9.552692 H        1 UNL1     0.0233
     92 H         4.503545   0.880349   -9.704758 H        1 UNL1     0.0233
     93 H         5.199776   2.11079   -8.672344 H        1 UNL1     0.0233
     94 H         4.6346   -1.491141   -9.174656 H        1 UNL1     0.0233
     95 H         6.33593   -1.609895   -8.699572 H        1 UNL1     0.0233
     96 H         5.058374   -2.065587   -7.548839 H        1 UNL1     0.0233
     97 H         4.169778   10.511057   -0.105424 H        1 UNL1     0.0280
     98 H         5.776878   11.126654   -0.38012 H        1 UNL1     0.0280
     99 H         4.587704   11.123426   -1.716377 H        1 UNL1     0.0280
     100 H         6.708804   10.702906   -3.032349 H        1 UNL1     0.2922
     101 H         4.708086   0.874342   2.424422 H        1 UNL1     0.0236
     102 H         6.024073   2.110951   2.495403 H        1 UNL1     0.0236
     103 H         6.325542   0.502178   1.915348 H        1 UNL1     0.0236
     104 H         4.332889   -0.569066   1.266432 H        1 UNL1     0.2098
     105 H         0.710553   1.279695   -0.931817 H        1 UNL1     0.0234
     106 H         1.288139   -0.408674   -1.014882 H        1 UNL1     0.0234
     107 H         0.0   -0.0   0.0 H        1 UNL1     0.0234
     108 H         1.210727   3.258377   1.747112 H        1 UNL1     0.2098
     109 H         1.085557   3.044976   -0.854239 H        1 UNL1     0.0234
     110 H         -0.17569   2.333962   -1.910893 H        1 UNL1     0.0234
     111 H         0.082331   4.043241   -1.885723 H        1 UNL1     0.0234
     112 H         -3.600677   -1.502165   1.458165 H        1 UNL1     0.0342
     113 H         -3.219463   0.125013   2.125404 H        1 UNL1     0.0342
     114 H         -4.420366   -0.055819   0.843568 H        1 UNL1     0.0342
     115 H         -2.643481   1.959325   3.314969 H        1 UNL1     0.0234
     116 H         -1.135599   1.924528   4.23468 H        1 UNL1     0.0234
     117 H         -1.609217   3.306791   3.225381 H        1 UNL1     0.0234
     118 H         0.96089   7.680769   -0.778071 H        1 UNL1     0.0309
     119 H         2.229007   7.777936   -2.039221 H        1 UNL1     0.0309
     120 H         1.468082   6.26015   -1.615572 H        1 UNL1     0.0309
     121 H         -0.326741   6.290566   2.808532 H        1 UNL1     0.0524
     122 H         -2.062244   6.03813   2.582345 H        1 UNL1     0.0524
     123 H         -1.246653   5.332703   4.000416 H        1 UNL1     0.0524
@<TRIPOS>BOND
     1     1     2    1
     2     1    42    1
     3     2     3    2
     4     3     4    1
     5     4     5    2
     6     5     7    1
     7     6    75    1
     8     6    76    1
     9     6    77    1
    10     7     9   am
    11     9    10    1
    12    10    11    2
    13    10    43    1
    14    11    14    1
    15    11    15    1
    16    12    13   ar
    17    12    27   ar
    18    12    43    1
    19    13    14    1
    20    13    30   ar
    21    14    17    2
    22    15    16    1
    23    16    17    1
    24    16    18    1
    25    16    22    1
    26    18    19    1
    27    19    20    1
    28    20    21    1
    29    21    22    1
    30    23    24    1
    31    23    88    1
    32    23    89    1
    33    24    25    1
    34    24    26    1
    35    24    90    1
    36    25    91    1
    37    25    92    1
    38    25    93    1
    39    26    94    1
    40    26    95    1
    41    26    96    1
    42    27    28   ar
    43    28    29   ar
    44    29    30   ar
    45    29    31    1
    46    30    33    1
    47    31    32    1
    48    32    33    1
    49    32    35    1
    50    34    97    1
    51    34    98    1
    52    34    99    1
    53    35    61    1
    54    36    37    1
    55    36    60    1
    56    37    38    1
    57    38    39    1
    58    39    40    1
    59    40    41    1
    60    41    42    1
    61    45   100    1
    62    47   101    1
    63    47   102    1
    64    47   103    1
    65    48   104    1
    66    49   105    1
    67    49   106    1
    68    49   107    1
    69    50   108    1
    70    51    59    1
    71    52   109    1
    72    52   110    1
    73    52   111    1
    74    53    54    1
    75    54    55    2
    76    54    56    1
    77    56   112    1
    78    56   113    1
    79    56   114    1
    80    57   115    1
    81    57   116    1
    82    57   117    1
    83    58   118    1
    84    58   119    1
    85    58   120    1
    86    59   121    1
    87    59   122    1
    88    59   123    1
    89    60    61    2
    90     1    47    1
    91     1    62    1
    92     2    63    1
    93     3    64    1
    94     4    65    1
    95     5     6    1
    96     7     8    2
    97     9    78    1
    98    15    79    1
    99    18    80    1
   100    18    81    1
   101    19    82    1
   102    19    83    1
   103    20    23    1
   104    21    84    1
   105    21    85    1
   106    22    86    1
   107    22    87    1
   108    27    45    1
   109    28    34    1
   110    32    58    1
   111    33    46    2
   112    36    51    1
   113    36    66    1
   114    37    52    1
   115    37    67    1
   116    38    53    1
   117    38    68    1
   118    42    48    1
   119    42    72    1
   120    43    44    2
   121    60    73    1
   122    61    74    1
   123    39    69    1
   124    39    57    1
   125    40    70    1
   126    40    50    1
   127    41    71    1
   128    41    49    1
