@<TRIPOS>MOLECULE
*****
 123 128 0 0 0
SMALL
GASTEIGER

@<TRIPOS>ATOM
     1 C         1.97879   -2.181667   -2.893101 C.3        1 UNL1     0.0009
     2 C         3.215395   -1.574391   -4.13369 C.2        1 UNL1     -0.0787
     3 C         3.526629   -1.078931   -5.457963 C.2        1 UNL1     -0.0649
     4 C         5.015329   -0.51577   -6.035008 C.2        1 UNL1     -0.0542
     5 C         5.655289   0.262418   -7.030976 C.2        1 UNL1     0.0115
     6 C         5.437576   1.005439   -8.377767 C.3        1 UNL1     -0.0348
     7 C         7.157709   0.767217   -6.776219 C.2        1 UNL1     0.2441
     8 O         8.133518   0.238953   -7.291252 O.2        1 UNL1     -0.2702
     9 N         7.259361   2.013123   -6.133151 N.am        1 UNL1     -0.2772
     10 C         7.256191   1.849998   -4.766878 C.2        1 UNL1     0.1049
     11 C         6.070607   1.726804   -4.198165 C.2        1 UNL1     0.0801
     12 C         8.319738   0.535063   -2.923742 C.ar        1 UNL1     0.0753
     13 C         6.993469   0.255235   -2.464052 C.ar        1 UNL1     0.0305
     14 C         5.831188   0.951547   -3.011139 C.2        1 UNL1     0.0924
     15 N         4.843763   1.942376   -4.703053 N.pl3        1 UNL1     -0.3170
     16 C         3.898798   1.83224   -3.623625 C.3        1 UNL1     0.1275
     17 N         4.554953   0.892871   -2.641398 N.2        1 UNL1     -0.2557
     18 C         3.839364   3.191971   -2.934203 C.3        1 UNL1     0.0016
     19 C         3.488491   4.247733   -3.970468 C.3        1 UNL1     0.0026
     20 N         2.205246   3.907276   -4.569133 N.3        1 UNL1     -0.3018
     21 C         2.145608   2.589093   -5.204119 C.3        1 UNL1     0.0026
     22 C         2.496898   1.543652   -4.144146 C.3        1 UNL1     0.0016
     23 C         1.639165   4.992779   -5.344942 C.3        1 UNL1     0.0012
     24 C         2.207394   4.987756   -6.772824 C.3        1 UNL1     -0.0339
     25 C         1.094416   4.820714   -7.820408 C.3        1 UNL1     -0.0615
     26 C         3.018345   6.248894   -7.015044 C.3        1 UNL1     -0.0615
     27 C         9.431459   -0.042882   -2.315324 C.ar        1 UNL1     0.1347
     28 C         9.34503   -0.881699   -1.218525 C.ar        1 UNL1     0.0342
     29 C         8.026826   -1.181551   -0.814063 C.ar        1 UNL1     0.1435
     30 C         6.902268   -0.638575   -1.436774 C.ar        1 UNL1     0.0774
     31 O         7.778352   -1.895442   0.305592 O.3        1 UNL1     -0.4436
     32 C         6.414656   -1.590759   0.634792 C.3        1 UNL1     0.3143
     33 C         5.783447   -1.142095   -0.667701 C.2        1 UNL1     0.2504
     34 C         10.494751   -1.335312   -0.362677 C.3        1 UNL1     -0.0327
     35 O         5.780285   -2.821527   1.003622 O.2        1 UNL1     -0.4528
     36 C         3.089492   -1.893608   3.514935 C.3        1 UNL1     0.0854
     37 C         1.879357   -0.894822   3.355178 C.3        1 UNL1     0.0236
     38 C         0.437517   -1.52505   3.664459 C.3        1 UNL1     0.1131
     39 C         0.0069   -2.879009   2.969021 C.3        1 UNL1     0.0200
     40 C         0.311311   -3.130486   1.348363 C.3        1 UNL1     0.0661
     41 C         -0.062095   -2.057141   0.088955 C.3        1 UNL1     0.0091
     42 C         0.796453   -1.744182   -1.501753 C.3        1 UNL1     0.0661
     43 C         8.477514   1.530915   -4.012615 C.2        1 UNL1     0.2131
     44 O         9.511018   2.139179   -4.223854 O.2        1 UNL1     -0.2851
     45 O         10.68407   0.246028   -2.852851 O.3        1 UNL1     -0.5056
     46 O         4.622048   -1.206379   -1.003669 O.2        1 UNL1     -0.2836
     47 C         1.544375   -3.633288   -3.23083 C.3        1 UNL1     -0.0566
     48 O         -0.442981   -1.805373   -2.313649 O.3        1 UNL1     -0.3909
     49 C         -0.398293   -0.707032   0.681974 C.3        1 UNL1     -0.0577
     50 O         1.605373   -3.666377   1.158765 O.3        1 UNL1     -0.3910
     51 O         2.748958   -3.243761   3.735285 O.3        1 UNL1     -0.3753
     52 C         2.110694   0.117199   2.185885 C.3        1 UNL1     -0.0564
     53 O         -0.640051   -0.497026   3.849769 O.3        1 UNL1     -0.4608
     54 C         -1.937145   -0.619278   3.424882 C.2        1 UNL1     0.3042
     55 O         -2.774267   -1.436178   3.806643 O.2        1 UNL1     -0.2512
     56 C         -2.341816   0.42234   2.420896 C.3        1 UNL1     0.0332
     57 C         0.340504   -4.069658   3.983534 C.3        1 UNL1     -0.0567
     58 C         6.45748   -0.389792   1.608123 C.3        1 UNL1     0.0210
     59 C         2.992122   -3.714744   5.060016 C.3        1 UNL1     0.0372
     60 C         4.071547   -1.875608   2.39672 C.2        1 UNL1     -0.0208
     61 C         4.656615   -2.880661   1.743796 C.2        1 UNL1     0.0882
     62 H         2.7863   -2.260325   -2.155231 H        1 UNL1     0.0365
     63 H         4.144542   -1.702414   -3.574436 H        1 UNL1     0.0576
     64 H         2.742846   -0.866432   -6.188467 H        1 UNL1     0.0615
     65 H         5.730529   -0.845993   -5.276771 H        1 UNL1     0.0622
     66 H         3.632507   -1.530184   4.398735 H        1 UNL1     0.0645
     67 H         1.997741   -0.193073   4.199034 H        1 UNL1     0.0362
     68 H         0.569517   -1.772805   4.728751 H        1 UNL1     0.0741
     69 H         -1.069456   -2.972231   3.025362 H        1 UNL1     0.0359
     70 H         -0.370994   -3.980458   1.155833 H        1 UNL1     0.0600
     71 H         -1.067858   -2.428377   -0.189579 H        1 UNL1     0.0348
     72 H         1.147839   -2.7271   -1.155754 H        1 UNL1     0.0602
     73 H         4.385725   -0.876276   2.223874 H        1 UNL1     0.0628
     74 H         4.353623   -3.925405   1.820879 H        1 UNL1     0.1022
     75 H         6.063184   0.54951   -9.182613 H        1 UNL1     0.0279
     76 H         4.437448   0.956739   -8.80255 H        1 UNL1     0.0279
     77 H         5.82189   2.035853   -8.361948 H        1 UNL1     0.0279
     78 H         6.455784   2.589301   -6.37473 H        1 UNL1     0.1553
     79 H         4.668249   2.489681   -5.525601 H        1 UNL1     0.1484
     80 H         3.092143   3.153903   -2.132344 H        1 UNL1     0.0317
     81 H         4.796716   3.432117   -2.45938 H        1 UNL1     0.0317
     82 H         4.271011   4.340877   -4.737865 H        1 UNL1     0.0428
     83 H         3.453146   5.20957   -3.457954 H        1 UNL1     0.0428
     84 H         1.150234   2.325522   -5.575028 H        1 UNL1     0.0428
     85 H         2.785407   2.535576   -6.095808 H        1 UNL1     0.0428
     86 H         2.314296   0.590868   -4.605499 H        1 UNL1     0.0317
     87 H         1.763746   1.575568   -3.328936 H        1 UNL1     0.0317
     88 H         0.553035   4.842681   -5.400493 H        1 UNL1     0.0429
     89 H         1.805393   5.961328   -4.85601 H        1 UNL1     0.0429
     90 H         2.912062   4.154089   -6.876051 H        1 UNL1     0.0308
     91 H         0.151441   5.251824   -7.47106 H        1 UNL1     0.0233
     92 H         1.377475   5.293946   -8.763562 H        1 UNL1     0.0233
     93 H         0.895546   3.767797   -8.054183 H        1 UNL1     0.0233
     94 H         4.08107   6.055268   -6.833494 H        1 UNL1     0.0233
     95 H         2.907062   6.570834   -8.054242 H        1 UNL1     0.0233
     96 H         2.69793   7.061813   -6.357423 H        1 UNL1     0.0233
     97 H         10.365532   -1.050943   0.677355 H        1 UNL1     0.0280
     98 H         10.605956   -2.427506   -0.364019 H        1 UNL1     0.0280
     99 H         11.430007   -0.882839   -0.730999 H        1 UNL1     0.0280
     100 H         10.708327   0.279908   -3.793003 H        1 UNL1     0.2922
     101 H         0.727186   -3.614237   -3.95159 H        1 UNL1     0.0236
     102 H         1.29795   -4.223199   -2.348638 H        1 UNL1     0.0236
     103 H         2.346795   -4.199609   -3.732424 H        1 UNL1     0.0236
     104 H         -1.00465   -2.51324   -1.941596 H        1 UNL1     0.2098
     105 H         -1.463305   -0.511922   0.779398 H        1 UNL1     0.0234
     106 H         0.114451   -0.479709   1.616503 H        1 UNL1     0.0234
     107 H         0.0   0.0   0.0 H        1 UNL1     0.0234
     108 H         1.645345   -4.509056   1.650763 H        1 UNL1     0.2098
     109 H         3.002415   0.739554   2.344692 H        1 UNL1     0.0234
     110 H         2.170773   -0.365471   1.204476 H        1 UNL1     0.0234
     111 H         1.272133   0.819238   2.086379 H        1 UNL1     0.0234
     112 H         -2.956768   -0.033503   1.638984 H        1 UNL1     0.0342
     113 H         -2.858996   1.260272   2.88591 H        1 UNL1     0.0342
     114 H         -1.431238   0.814534   1.947404 H        1 UNL1     0.0342
     115 H         -0.38208   -4.892987   3.898734 H        1 UNL1     0.0234
     116 H         1.338395   -4.494224   3.857014 H        1 UNL1     0.0234
     117 H         0.22138   -3.790009   5.044452 H        1 UNL1     0.0234
     118 H         6.157892   -0.674906   2.631824 H        1 UNL1     0.0309
     119 H         7.436187   0.099102   1.644435 H        1 UNL1     0.0309
     120 H         5.737568   0.392163   1.342832 H        1 UNL1     0.0309
     121 H         2.300913   -3.198393   5.725574 H        1 UNL1     0.0524
     122 H         2.803994   -4.796662   5.160507 H        1 UNL1     0.0524
     123 H         4.018033   -3.506789   5.350454 H        1 UNL1     0.0524
@<TRIPOS>BOND
     1     1     2    1
     2     1    42    1
     3     2     3    2
     4     3     4    1
     5     4     5    2
     6     5     7    1
     7     6    75    1
     8     6    76    1
     9     6    77    1
    10     7     9   am
    11     9    10    1
    12    10    11    2
    13    10    43    1
    14    11    14    1
    15    11    15    1
    16    12    13   ar
    17    12    27   ar
    18    12    43    1
    19    13    14    1
    20    13    30   ar
    21    14    17    2
    22    15    16    1
    23    16    17    1
    24    16    18    1
    25    16    22    1
    26    18    19    1
    27    19    20    1
    28    20    21    1
    29    21    22    1
    30    23    24    1
    31    23    88    1
    32    23    89    1
    33    24    25    1
    34    24    26    1
    35    24    90    1
    36    25    91    1
    37    25    92    1
    38    25    93    1
    39    26    94    1
    40    26    95    1
    41    26    96    1
    42    27    28   ar
    43    28    29   ar
    44    29    30   ar
    45    29    31    1
    46    30    33    1
    47    31    32    1
    48    32    33    1
    49    32    35    1
    50    34    97    1
    51    34    98    1
    52    34    99    1
    53    35    61    1
    54    36    37    1
    55    36    60    1
    56    37    38    1
    57    38    39    1
    58    39    40    1
    59    40    41    1
    60    41    42    1
    61    45   100    1
    62    47   101    1
    63    47   102    1
    64    47   103    1
    65    48   104    1
    66    49   105    1
    67    49   106    1
    68    49   107    1
    69    50   108    1
    70    51    59    1
    71    52   109    1
    72    52   110    1
    73    52   111    1
    74    53    54    1
    75    54    55    2
    76    54    56    1
    77    56   112    1
    78    56   113    1
    79    56   114    1
    80    57   115    1
    81    57   116    1
    82    57   117    1
    83    58   118    1
    84    58   119    1
    85    58   120    1
    86    59   121    1
    87    59   122    1
    88    59   123    1
    89    60    61    2
    90     1    47    1
    91     1    62    1
    92     2    63    1
    93     3    64    1
    94     4    65    1
    95     5     6    1
    96     7     8    2
    97     9    78    1
    98    15    79    1
    99    18    80    1
   100    18    81    1
   101    19    82    1
   102    19    83    1
   103    20    23    1
   104    21    84    1
   105    21    85    1
   106    22    86    1
   107    22    87    1
   108    27    45    1
   109    28    34    1
   110    32    58    1
   111    33    46    2
   112    36    51    1
   113    36    66    1
   114    37    52    1
   115    37    67    1
   116    38    53    1
   117    38    68    1
   118    42    48    1
   119    42    72    1
   120    43    44    2
   121    60    73    1
   122    61    74    1
   123    39    69    1
   124    39    57    1
   125    40    70    1
   126    40    50    1
   127    41    71    1
   128    41    49    1
