@<TRIPOS>MOLECULE
*****
 123 128 0 0 0
SMALL
GASTEIGER

@<TRIPOS>ATOM
     1 C         1.677657   -4.596029   -1.936956 C.3        1 UNL1     0.0009
     2 C         1.621024   -5.591312   -3.500044 C.2        1 UNL1     -0.0787
     3 C         1.185187   -6.765383   -4.226439 C.2        1 UNL1     -0.0649
     4 C         1.376973   -7.099778   -5.875001 C.2        1 UNL1     -0.0542
     5 C         0.905791   -7.871526   -6.96563 C.2        1 UNL1     0.0115
     6 C         -0.010112   -9.062993   -7.35914 C.3        1 UNL1     -0.0348
     7 C         1.259943   -7.402673   -8.459531 C.2        1 UNL1     0.2441
     8 O         2.136189   -7.928624   -9.131911 O.2        1 UNL1     -0.2702
     9 N         0.326439   -6.525383   -9.038394 N.am        1 UNL1     -0.2772
     10 C         0.637791   -5.221073   -8.729917 C.2        1 UNL1     0.1049
     11 C         0.22055   -4.78531   -7.55508 C.2        1 UNL1     0.0801
     12 C         2.530409   -3.585582   -8.707554 C.ar        1 UNL1     0.0753
     13 C         2.162782   -3.298087   -7.354481 C.ar        1 UNL1     0.0305
     14 C         0.91442   -3.793533   -6.779001 C.2        1 UNL1     0.0924
     15 N         -0.643489   -5.337428   -6.686098 N.pl3        1 UNL1     -0.3170
     16 C         -0.88638   -4.380137   -5.639746 C.3        1 UNL1     0.1275
     17 N         0.371247   -3.547285   -5.590199 N.2        1 UNL1     -0.2557
     18 C         -1.992219   -3.448703   -6.126832 C.3        1 UNL1     0.0016
     19 C         -3.203136   -4.287082   -6.504178 C.3        1 UNL1     0.0026
     20 N         -3.631586   -5.042685   -5.335194 N.3        1 UNL1     -0.3018
     21 C         -2.614132   -5.922583   -4.756457 C.3        1 UNL1     0.0026
     22 C         -1.408829   -5.058996   -4.380482 C.3        1 UNL1     0.0016
     23 C         -4.942875   -5.63818   -5.498138 C.3        1 UNL1     0.0012
     24 C         -6.020985   -4.547607   -5.598576 C.3        1 UNL1     -0.0339
     25 C         -6.520023   -4.381541   -7.043373 C.3        1 UNL1     -0.0615
     26 C         -7.162404   -4.854267   -4.644689 C.3        1 UNL1     -0.0615
     27 C         3.659903   -3.011464   -9.286131 C.ar        1 UNL1     0.1347
     28 C         4.473467   -2.107703   -8.626298 C.ar        1 UNL1     0.0342
     29 C         4.120012   -1.877416   -7.279746 C.ar        1 UNL1     0.1435
     30 C         3.012188   -2.473296   -6.6757 C.ar        1 UNL1     0.0774
     31 O         4.748282   -0.940426   -6.536555 O.3        1 UNL1     -0.4436
     32 C         3.845165   -0.6709   -5.453684 C.3        1 UNL1     0.3143
     33 C         2.979304   -1.909489   -5.342356 C.2        1 UNL1     0.2504
     34 C         5.547031   -1.264571   -9.256129 C.3        1 UNL1     -0.0327
     35 O         4.626841   -0.599193   -4.254896 O.2        1 UNL1     -0.4528
     36 C         2.801495   1.816126   -1.96526 C.3        1 UNL1     0.0854
     37 C         1.319448   1.753843   -1.429366 C.3        1 UNL1     0.0236
     38 C         1.174586   1.817295   0.166483 C.3        1 UNL1     0.1131
     39 C         2.028859   0.841158   1.071824 C.3        1 UNL1     0.0200
     40 C         2.191133   -0.767282   0.660697 C.3        1 UNL1     0.0661
     41 C         0.925553   -1.82231   0.257171 C.3        1 UNL1     0.0091
     42 C         0.886663   -3.247501   -0.897264 C.3        1 UNL1     0.0661
     43 C         1.619273   -4.445508   -9.502928 C.2        1 UNL1     0.2131
     44 O         1.590506   -4.450595   -10.720254 O.2        1 UNL1     -0.2851
     45 O         3.972928   -3.379324   -10.593086 O.3        1 UNL1     -0.5056
     46 O         2.409   -2.345045   -4.367215 O.2        1 UNL1     -0.2836
     47 C         2.658981   -5.241516   -0.921904 C.3        1 UNL1     -0.0566
     48 O         0.214174   -4.154206   0.06438 O.3        1 UNL1     -0.3909
     49 C         -0.323139   -1.00955   -0.002993 C.3        1 UNL1     -0.0577
     50 O         3.274868   -0.950543   -0.227931 O.3        1 UNL1     -0.3910
     51 O         3.813907   1.743571   -0.986899 O.3        1 UNL1     -0.3753
     52 C         0.42118   0.82439   -2.30924 C.3        1 UNL1     -0.0564
     53 O         -0.222186   2.108874   0.631603 O.3        1 UNL1     -0.4608
     54 C         -0.615161   3.230438   1.313948 C.2        1 UNL1     0.3042
     55 O         -0.592035   4.394005   0.914679 O.2        1 UNL1     -0.2512
     56 C         -1.179842   2.939219   2.675212 C.3        1 UNL1     0.0332
     57 C         3.343773   1.630856   1.525202 C.3        1 UNL1     -0.0567
     58 C         2.962504   0.515883   -5.905333 C.3        1 UNL1     0.0210
     59 C         3.538528   0.856166   0.095942 C.3        1 UNL1     0.0372
     60 C         3.136913   0.806168   -3.00576 C.2        1 UNL1     -0.0208
     61 C         4.207605   0.021628   -3.135606 C.2        1 UNL1     0.0882
     62 H         2.24372   -3.823865   -2.471789 H        1 UNL1     0.0365
     63 H         2.267691   -4.993412   -4.14565 H        1 UNL1     0.0576
     64 H         0.517437   -7.50261   -3.775092 H        1 UNL1     0.0615
     65 H         2.114568   -6.363715   -6.206131 H        1 UNL1     0.0622
     66 H         2.875094   2.794661   -2.460335 H        1 UNL1     0.0645
     67 H         0.885441   2.723938   -1.727883 H        1 UNL1     0.0362
     68 H         1.587852   2.82101   0.348934 H        1 UNL1     0.0741
     69 H         1.575761   0.790574   2.052921 H        1 UNL1     0.0359
     70 H         2.551693   -1.175   1.624452 H        1 UNL1     0.0600
     71 H         0.703272   -2.248195   1.255255 H        1 UNL1     0.0348
     72 H         1.947922   -3.070015   -0.670233 H        1 UNL1     0.0602
     73 H         2.417496   0.855399   -3.785032 H        1 UNL1     0.0628
     74 H         4.95934   -0.129087   -2.360096 H        1 UNL1     0.1022
     75 H         0.493448   -9.711125   -8.116363 H        1 UNL1     0.0279
     76 H         -0.252154   -9.770383   -6.56915 H        1 UNL1     0.0279
     77 H         -0.908423   -8.745452   -7.9086 H        1 UNL1     0.0279
     78 H         -0.600398   -6.716017   -8.663282 H        1 UNL1     0.1553
     79 H         -1.304232   -6.050554   -6.934699 H        1 UNL1     0.1484
     80 H         -2.232787   -2.732827   -5.331587 H        1 UNL1     0.0317
     81 H         -1.65715   -2.860092   -6.987597 H        1 UNL1     0.0317
     82 H         -2.987612   -4.955765   -7.350537 H        1 UNL1     0.0428
     83 H         -3.978865   -3.603379   -6.850365 H        1 UNL1     0.0428
     84 H         -2.935047   -6.417195   -3.834403 H        1 UNL1     0.0428
     85 H         -2.360488   -6.752708   -5.430159 H        1 UNL1     0.0428
     86 H         -0.743701   -5.708686   -3.842435 H        1 UNL1     0.0317
     87 H         -1.700529   -4.315429   -3.62874 H        1 UNL1     0.0317
     88 H         -4.942033   -6.215821   -6.431746 H        1 UNL1     0.0429
     89 H         -5.16536   -6.341254   -4.685142 H        1 UNL1     0.0429
     90 H         -5.598589   -3.592995   -5.263151 H        1 UNL1     0.0308
     91 H         -7.519586   -3.937414   -7.070333 H        1 UNL1     0.0233
     92 H         -5.83405   -3.756159   -7.619521 H        1 UNL1     0.0233
     93 H         -6.582465   -5.33812   -7.57619 H        1 UNL1     0.0233
     94 H         -8.117718   -4.835091   -5.180266 H        1 UNL1     0.0233
     95 H         -7.034918   -5.853253   -4.218383 H        1 UNL1     0.0233
     96 H         -7.208253   -4.126069   -3.830075 H        1 UNL1     0.0233
     97 H         6.351049   -1.042419   -8.560834 H        1 UNL1     0.0280
     98 H         6.019016   -1.766257   -10.110995 H        1 UNL1     0.0280
     99 H         5.113554   -0.310921   -9.599268 H        1 UNL1     0.0280
     100 H         4.552288   -4.117526   -10.663954 H        1 UNL1     0.2922
     101 H         2.122104   -5.949274   -0.290638 H        1 UNL1     0.0236
     102 H         3.212618   -4.508853   -0.335666 H        1 UNL1     0.0236
     103 H         3.434562   -5.845146   -1.422201 H        1 UNL1     0.0236
     104 H         -0.74653   -3.984625   0.007286 H        1 UNL1     0.2098
     105 H         -0.794452   -1.205188   -0.96289 H        1 UNL1     0.0234
     106 H         -1.063923   -1.044608   0.795716 H        1 UNL1     0.0234
     107 H         0.0   0.0   0.0 H        1 UNL1     0.0234
     108 H         2.994407   -0.614035   -1.100783 H        1 UNL1     0.2098
     109 H         0.873531   -0.164935   -2.46521 H        1 UNL1     0.0234
     110 H         -0.592949   0.705232   -1.912898 H        1 UNL1     0.0234
     111 H         0.267291   1.242443   -3.312982 H        1 UNL1     0.0234
     112 H         -0.366624   2.756056   3.384065 H        1 UNL1     0.0342
     113 H         -1.832584   3.736724   3.027006 H        1 UNL1     0.0342
     114 H         -1.781149   2.022101   2.608203 H        1 UNL1     0.0342
     115 H         3.164694   2.712169   1.601901 H        1 UNL1     0.0234
     116 H         3.754671   1.29752   2.480241 H        1 UNL1     0.0234
     117 H         4.154417   1.601662   0.776907 H        1 UNL1     0.0234
     118 H         3.553555   1.309095   -6.395721 H        1 UNL1     0.0309
     119 H         2.145688   0.215544   -6.569268 H        1 UNL1     0.0309
     120 H         2.493008   1.03513   -5.062681 H        1 UNL1     0.0309
     121 H         2.697406   1.26735   0.653435 H        1 UNL1     0.0524
     122 H         3.247223   -0.149279   -0.250843 H        1 UNL1     0.0524
     123 H         4.408505   0.768473   0.740569 H        1 UNL1     0.0524
@<TRIPOS>BOND
     1     1     2    1
     2     1    42    1
     3     2     3    2
     4     3     4    1
     5     4     5    2
     6     5     7    1
     7     6    75    1
     8     6    76    1
     9     6    77    1
    10     7     9   am
    11     9    10    1
    12    10    11    2
    13    10    43    1
    14    11    14    1
    15    11    15    1
    16    12    13   ar
    17    12    27   ar
    18    12    43    1
    19    13    14    1
    20    13    30   ar
    21    14    17    2
    22    15    16    1
    23    16    17    1
    24    16    18    1
    25    16    22    1
    26    18    19    1
    27    19    20    1
    28    20    21    1
    29    21    22    1
    30    23    24    1
    31    23    88    1
    32    23    89    1
    33    24    25    1
    34    24    26    1
    35    24    90    1
    36    25    91    1
    37    25    92    1
    38    25    93    1
    39    26    94    1
    40    26    95    1
    41    26    96    1
    42    27    28   ar
    43    28    29   ar
    44    29    30   ar
    45    29    31    1
    46    30    33    1
    47    31    32    1
    48    32    33    1
    49    32    35    1
    50    34    97    1
    51    34    98    1
    52    34    99    1
    53    35    61    1
    54    36    37    1
    55    36    60    1
    56    37    38    1
    57    38    39    1
    58    39    40    1
    59    40    41    1
    60    41    42    1
    61    45   100    1
    62    47   101    1
    63    47   102    1
    64    47   103    1
    65    48   104    1
    66    49   105    1
    67    49   106    1
    68    49   107    1
    69    50   108    1
    70    51    59    1
    71    52   109    1
    72    52   110    1
    73    52   111    1
    74    53    54    1
    75    54    55    2
    76    54    56    1
    77    56   112    1
    78    56   113    1
    79    56   114    1
    80    57   115    1
    81    57   116    1
    82    57   117    1
    83    58   118    1
    84    58   119    1
    85    58   120    1
    86    59   121    1
    87    59   122    1
    88    59   123    1
    89    60    61    2
    90     1    47    1
    91     1    62    1
    92     2    63    1
    93     3    64    1
    94     4    65    1
    95     5     6    1
    96     7     8    2
    97     9    78    1
    98    15    79    1
    99    18    80    1
   100    18    81    1
   101    19    82    1
   102    19    83    1
   103    20    23    1
   104    21    84    1
   105    21    85    1
   106    22    86    1
   107    22    87    1
   108    27    45    1
   109    28    34    1
   110    32    58    1
   111    33    46    2
   112    36    51    1
   113    36    66    1
   114    37    52    1
   115    37    67    1
   116    38    53    1
   117    38    68    1
   118    42    48    1
   119    42    72    1
   120    43    44    2
   121    60    73    1
   122    61    74    1
   123    39    69    1
   124    39    57    1
   125    40    70    1
   126    40    50    1
   127    41    71    1
   128    41    49    1
