@<TRIPOS>MOLECULE
*****
 123 128 0 0 0
SMALL
GASTEIGER

@<TRIPOS>ATOM
     1 C         3.8868   -1.256545   -2.239596 C.3        1 UNL1     0.0009
     2 C         4.160594   -1.941012   -3.940648 C.2        1 UNL1     -0.0787
     3 C         4.57261   -3.025359   -4.806952 C.2        1 UNL1     -0.0649
     4 C         4.478488   -3.101323   -6.495657 C.2        1 UNL1     -0.0542
     5 C         4.466953   -3.962826   -7.620272 C.2        1 UNL1     0.0115
     6 C         4.695264   -5.428069   -8.083155 C.3        1 UNL1     -0.0348
     7 C         3.913586   -3.405361   -9.020274 C.2        1 UNL1     0.2441
     8 O         4.647625   -3.062006   -9.936691 O.2        1 UNL1     -0.2702
     9 N         2.533541   -3.582676   -9.220743 N.am        1 UNL1     -0.2772
     10 C         1.83258   -2.516575   -8.70557 C.2        1 UNL1     0.1049
     11 C         1.582878   -2.555938   -7.409298 C.2        1 UNL1     0.0801
     12 C         1.758004   -0.016321   -8.683139 C.ar        1 UNL1     0.0753
     13 C         1.698729   -0.109013   -7.256078 C.ar        1 UNL1     0.0305
     14 C         1.476571   -1.385609   -6.580801 C.2        1 UNL1     0.0924
     15 N         1.716701   -3.567234   -6.534141 N.pl3        1 UNL1     -0.3170
     16 C         1.146566   -3.143776   -5.282789 C.3        1 UNL1     0.1275
     17 N         1.296443   -1.642034   -5.288235 N.2        1 UNL1     -0.2557
     18 C         -0.352286   -3.420024   -5.352297 C.3        1 UNL1     0.0016
     19 C         -0.561267   -4.891808   -5.67131 C.3        1 UNL1     0.0026
     20 N         0.070987   -5.690419   -4.630395 N.3        1 UNL1     -0.3018
     21 C         1.503575   -5.449552   -4.445886 C.3        1 UNL1     0.0026
     22 C         1.68995   -3.966261   -4.12184 C.3        1 UNL1     0.0016
     23 C         -0.320259   -7.085294   -4.673908 C.3        1 UNL1     0.0012
     24 C         -1.093378   -7.467774   -3.401999 C.3        1 UNL1     -0.0339
     25 C         -0.991753   -6.369722   -2.330546 C.3        1 UNL1     -0.0615
     26 C         -2.539173   -7.781204   -3.745827 C.3        1 UNL1     -0.0615
     27 C         1.848815   1.217495   -9.323115 C.ar        1 UNL1     0.1347
     28 C         1.848059   2.424327   -8.646648 C.ar        1 UNL1     0.0342
     29 C         1.838267   2.306547   -7.24052 C.ar        1 UNL1     0.1435
     30 C         1.783891   1.07607   -6.584631 C.ar        1 UNL1     0.0774
     31 O         1.724169   3.391133   -6.443237 O.3        1 UNL1     -0.4436
     32 C         1.280023   2.868927   -5.181925 C.3        1 UNL1     0.3143
     33 C         1.714503   1.417227   -5.179084 C.2        1 UNL1     0.2504
     34 C         1.689802   3.783729   -9.268805 C.3        1 UNL1     -0.0327
     35 O         2.032143   3.531508   -4.157935 O.2        1 UNL1     -0.4528
     36 C         -0.235329   3.655266   -1.116333 C.3        1 UNL1     0.0854
     37 C         -0.93318   2.469717   -0.34497 C.3        1 UNL1     0.0236
     38 C         -0.622971   2.410987   1.22731 C.3        1 UNL1     0.1131
     39 C         0.874198   2.467328   1.734835 C.3        1 UNL1     0.0200
     40 C         2.059468   1.576569   0.970558 C.3        1 UNL1     0.0661
     41 C         1.972128   -0.074369   0.590575 C.3        1 UNL1     0.0091
     42 C         2.691859   -1.01234   -0.812136 C.3        1 UNL1     0.0661
     43 C         1.629359   -1.272484   -9.462732 C.2        1 UNL1     0.2131
     44 O         1.276365   -1.308554   -10.627563 O.2        1 UNL1     -0.2851
     45 O         1.948077   1.217557   -10.71293 O.3        1 UNL1     -0.5056
     46 O         1.96797   0.708389   -4.230845 O.2        1 UNL1     -0.2836
     47 C         5.244079   -0.892298   -1.579975 C.3        1 UNL1     -0.0566
     48 O         3.232041   -2.097449   0.042182 O.3        1 UNL1     -0.3909
     49 C         0.539087   -0.534352   0.739914 C.3        1 UNL1     -0.0577
     50 O         2.602241   2.295062   -0.118886 O.3        1 UNL1     -0.3910
     51 O         0.702297   4.404252   -0.376529 O.3        1 UNL1     -0.3753
     52 C         -1.025667   1.179018   -1.222746 C.3        1 UNL1     -0.0564
     53 O         -1.553581   1.513963   1.989963 O.3        1 UNL1     -0.4608
     54 C         -2.654774   0.884785   1.470886 C.2        1 UNL1     0.3042
     55 O         -3.742488   1.389385   1.195034 O.2        1 UNL1     -0.2512
     56 C         -2.431818   -0.571005   1.174778 C.3        1 UNL1     0.0332
     57 C         1.203481   3.989866   2.097634 C.3        1 UNL1     -0.0567
     58 C         -0.265178   2.927158   -5.204084 C.3        1 UNL1     0.0210
     59 C         2.061017   4.006148   -0.553331 C.3        1 UNL1     0.0372
     60 C         0.431601   3.270537   -2.390048 C.2        1 UNL1     -0.0208
     61 C         1.627448   3.606691   -2.875533 C.2        1 UNL1     0.0882
     62 H         3.501994   -0.335149   -2.693099 H        1 UNL1     0.0365
     63 H         3.923745   -1.067755   -4.552035 H        1 UNL1     0.0576
     64 H         4.846699   -4.004437   -4.407717 H        1 UNL1     0.0615
     65 H         4.280916   -2.067697   -6.792415 H        1 UNL1     0.0622
     66 H         -1.060283   4.324563   -1.398358 H        1 UNL1     0.0645
     67 H         -2.003158   2.741193   -0.34758 H        1 UNL1     0.0362
     68 H         -1.072964   3.365787   1.539375 H        1 UNL1     0.0741
     69 H         0.91231   2.092073   2.748808 H        1 UNL1     0.0359
     70 H         2.850364   1.608071   1.744219 H        1 UNL1     0.0600
     71 H         2.43466   -0.506644   1.499508 H        1 UNL1     0.0348
     72 H         3.262575   -0.074405   -0.749885 H        1 UNL1     0.0602
     73 H         -0.25637   2.736118   -2.996957 H        1 UNL1     0.0628
     74 H         2.409706   4.102247   -2.299569 H        1 UNL1     0.1022
     75 H         5.587175   -5.493449   -8.751926 H        1 UNL1     0.0279
     76 H         4.931836   -6.151132   -7.305798 H        1 UNL1     0.0279
     77 H         3.898644   -5.79308   -8.747884 H        1 UNL1     0.0279
     78 H         2.221627   -4.419297   -8.732018 H        1 UNL1     0.1553
     79 H         1.781826   -4.531741   -6.803247 H        1 UNL1     0.1484
     80 H         -0.810622   -3.149011   -4.393524 H        1 UNL1     0.0317
     81 H         -0.830115   -2.796463   -6.115516 H        1 UNL1     0.0317
     82 H         -0.167557   -5.152984   -6.664633 H        1 UNL1     0.0428
     83 H         -1.636601   -5.066533   -5.717987 H        1 UNL1     0.0428
     84 H         1.936782   -6.002378   -3.606525 H        1 UNL1     0.0428
     85 H         2.089072   -5.78133   -5.314468 H        1 UNL1     0.0428
     86 H         2.72666   -3.854341   -3.86359 H        1 UNL1     0.0317
     87 H         1.16795   -3.717888   -3.189679 H        1 UNL1     0.0317
     88 H         -0.979663   -7.228195   -5.539968 H        1 UNL1     0.0429
     89 H         0.549253   -7.738948   -4.820396 H        1 UNL1     0.0429
     90 H         -0.675102   -8.394936   -2.992573 H        1 UNL1     0.0308
     91 H         0.001312   -6.352538   -1.871603 H        1 UNL1     0.0233
     92 H         -1.204712   -5.38862   -2.76147 H        1 UNL1     0.0233
     93 H         -1.71517   -6.510522   -1.51834 H        1 UNL1     0.0233
     94 H         -3.197964   -6.995661   -3.360142 H        1 UNL1     0.0233
     95 H         -2.664387   -7.823286   -4.83142 H        1 UNL1     0.0233
     96 H         -2.853164   -8.736954   -3.316968 H        1 UNL1     0.0233
     97 H         0.965482   4.393422   -8.736954 H        1 UNL1     0.0280
     98 H         2.627481   4.354635   -9.259871 H        1 UNL1     0.0280
     99 H         1.350384   3.674947   -10.311905 H        1 UNL1     0.0280
     100 H         1.473536   1.90939   -11.139311 H        1 UNL1     0.2922
     101 H         5.899068   -1.7633   -1.581455 H        1 UNL1     0.0236
     102 H         5.135432   -0.46397   -0.584127 H        1 UNL1     0.0236
     103 H         5.792752   -0.128561   -2.156045 H        1 UNL1     0.0236
     104 H         3.008896   -2.947713   -0.384699 H        1 UNL1     0.2098
     105 H         0.387122   -1.595773   0.560742 H        1 UNL1     0.0234
     106 H         0.059974   -0.236249   1.672391 H        1 UNL1     0.0234
     107 H         -0.0   0.0   0.0 H        1 UNL1     0.0234
     108 H         1.912726   2.340158   -0.809033 H        1 UNL1     0.2098
     109 H         -1.56195   0.366636   -0.712698 H        1 UNL1     0.0234
     110 H         -1.478365   1.35742   -2.204062 H        1 UNL1     0.0234
     111 H         -0.031035   0.777107   -1.457525 H        1 UNL1     0.0234
     112 H         -1.362847   -0.764699   1.043892 H        1 UNL1     0.0342
     113 H         -2.854155   -1.214906   1.944755 H        1 UNL1     0.0342
     114 H         -2.935714   -0.809654   0.228046 H        1 UNL1     0.0342
     115 H         1.682686   4.080654   3.082168 H        1 UNL1     0.0234
     116 H         1.847557   4.489938   1.371587 H        1 UNL1     0.0234
     117 H         0.30361   4.612596   2.240397 H        1 UNL1     0.0234
     118 H         -0.682602   2.506585   -6.135685 H        1 UNL1     0.0309
     119 H         -0.72632   2.426354   -4.346911 H        1 UNL1     0.0309
     120 H         -0.647283   3.953829   -5.197045 H        1 UNL1     0.0309
     121 H         2.267821   4.005455   -1.623185 H        1 UNL1     0.0524
     122 H         2.767569   4.707519   -0.079095 H        1 UNL1     0.0524
     123 H         2.218676   3.013797   -0.140442 H        1 UNL1     0.0524
@<TRIPOS>BOND
     1     1     2    1
     2     1    42    1
     3     2     3    2
     4     3     4    1
     5     4     5    2
     6     5     7    1
     7     6    75    1
     8     6    76    1
     9     6    77    1
    10     7     9   am
    11     9    10    1
    12    10    11    2
    13    10    43    1
    14    11    14    1
    15    11    15    1
    16    12    13   ar
    17    12    27   ar
    18    12    43    1
    19    13    14    1
    20    13    30   ar
    21    14    17    2
    22    15    16    1
    23    16    17    1
    24    16    18    1
    25    16    22    1
    26    18    19    1
    27    19    20    1
    28    20    21    1
    29    21    22    1
    30    23    24    1
    31    23    88    1
    32    23    89    1
    33    24    25    1
    34    24    26    1
    35    24    90    1
    36    25    91    1
    37    25    92    1
    38    25    93    1
    39    26    94    1
    40    26    95    1
    41    26    96    1
    42    27    28   ar
    43    28    29   ar
    44    29    30   ar
    45    29    31    1
    46    30    33    1
    47    31    32    1
    48    32    33    1
    49    32    35    1
    50    34    97    1
    51    34    98    1
    52    34    99    1
    53    35    61    1
    54    36    37    1
    55    36    60    1
    56    37    38    1
    57    38    39    1
    58    39    40    1
    59    40    41    1
    60    41    42    1
    61    45   100    1
    62    47   101    1
    63    47   102    1
    64    47   103    1
    65    48   104    1
    66    49   105    1
    67    49   106    1
    68    49   107    1
    69    50   108    1
    70    51    59    1
    71    52   109    1
    72    52   110    1
    73    52   111    1
    74    53    54    1
    75    54    55    2
    76    54    56    1
    77    56   112    1
    78    56   113    1
    79    56   114    1
    80    57   115    1
    81    57   116    1
    82    57   117    1
    83    58   118    1
    84    58   119    1
    85    58   120    1
    86    59   121    1
    87    59   122    1
    88    59   123    1
    89    60    61    2
    90     1    47    1
    91     1    62    1
    92     2    63    1
    93     3    64    1
    94     4    65    1
    95     5     6    1
    96     7     8    2
    97     9    78    1
    98    15    79    1
    99    18    80    1
   100    18    81    1
   101    19    82    1
   102    19    83    1
   103    20    23    1
   104    21    84    1
   105    21    85    1
   106    22    86    1
   107    22    87    1
   108    27    45    1
   109    28    34    1
   110    32    58    1
   111    33    46    2
   112    36    51    1
   113    36    66    1
   114    37    52    1
   115    37    67    1
   116    38    53    1
   117    38    68    1
   118    42    48    1
   119    42    72    1
   120    43    44    2
   121    60    73    1
   122    61    74    1
   123    39    69    1
   124    39    57    1
   125    40    70    1
   126    40    50    1
   127    41    71    1
   128    41    49    1
