@<TRIPOS>MOLECULE
*****
 123 128 0 0 0
SMALL
GASTEIGER

@<TRIPOS>ATOM
     1 C         3.472822   2.28218   2.190359 C.3        1 UNL1     0.0009
     2 C         5.225091   2.64049   1.7023 C.2        1 UNL1     -0.0787
     3 C         6.647321   2.46472   1.908249 C.2        1 UNL1     -0.0649
     4 C         7.916566   3.030775   0.941317 C.2        1 UNL1     -0.0542
     5 C         9.283296   2.866638   0.606374 C.2        1 UNL1     0.0115
     6 C         10.60091   2.15361   1.017234 C.3        1 UNL1     -0.0348
     7 C         9.827206   3.493975   -0.767525 C.2        1 UNL1     0.2441
     8 O         10.471614   4.532701   -0.815613 O.2        1 UNL1     -0.2702
     9 N         9.740238   2.639423   -1.880327 N.am        1 UNL1     -0.2772
     10 C         8.51592   2.773105   -2.49392 C.2        1 UNL1     0.1049
     11 C         7.522177   2.08089   -1.967105 C.2        1 UNL1     0.0801
     12 C         6.912425   4.481287   -3.370418 C.ar        1 UNL1     0.0753
     13 C         5.903436   3.81099   -2.608019 C.ar        1 UNL1     0.0305
     14 C         6.150541   2.511707   -1.986849 C.2        1 UNL1     0.0924
     15 N         7.544742   1.097467   -1.051191 N.pl3        1 UNL1     -0.3170
     16 C         6.213482   0.561139   -0.949441 C.3        1 UNL1     0.1275
     17 N         5.313124   1.708923   -1.336314 N.2        1 UNL1     -0.2557
     18 C         6.062216   -0.485135   -2.049501 C.3        1 UNL1     0.0016
     19 C         7.16821   -1.51685   -1.894806 C.3        1 UNL1     0.0026
     20 N         7.060114   -2.124248   -0.57556 N.3        1 UNL1     -0.3018
     21 C         7.132161   -1.187728   0.547875 C.3        1 UNL1     0.0026
     22 C         6.00957   -0.163184   0.37469 C.3        1 UNL1     0.0016
     23 C         7.869025   -3.318832   -0.436728 C.3        1 UNL1     0.0012
     24 C         9.288529   -2.957103   0.027941 C.3        1 UNL1     -0.0339
     25 C         10.320637   -3.183278   -1.089044 C.3        1 UNL1     -0.0615
     26 C         9.320968   -1.526786   0.537766 C.3        1 UNL1     -0.0615
     27 C         6.633192   5.659264   -4.059271 C.ar        1 UNL1     0.1347
     28 C         5.377226   6.238474   -4.092682 C.ar        1 UNL1     0.0342
     29 C         4.411815   5.587907   -3.295243 C.ar        1 UNL1     0.1435
     30 C         4.686355   4.427303   -2.57078 C.ar        1 UNL1     0.0774
     31 O         3.115023   5.966237   -3.309476 O.3        1 UNL1     -0.4436
     32 C         2.401165   4.833835   -2.790878 C.3        1 UNL1     0.3143
     33 C         3.418567   4.065223   -1.972133 C.2        1 UNL1     0.2504
     34 C         4.943635   7.351633   -5.005356 C.3        1 UNL1     -0.0327
     35 O         1.419084   5.332637   -1.874381 O.2        1 UNL1     -0.4528
     36 C         -1.46982   2.873918   -2.004839 C.3        1 UNL1     0.0854
     37 C         -1.469941   1.32124   -1.727872 C.3        1 UNL1     0.0236
     38 C         -2.514674   0.833637   -0.613188 C.3        1 UNL1     0.1131
     39 C         -2.548874   1.549018   0.797247 C.3        1 UNL1     0.0200
     40 C         -1.12943   1.922548   1.58977 C.3        1 UNL1     0.0661
     41 C         0.164392   0.860395   1.864482 C.3        1 UNL1     0.0091
     42 C         1.967489   1.182616   1.966547 C.3        1 UNL1     0.0661
     43 C         8.242932   3.832613   -3.476403 C.2        1 UNL1     0.2131
     44 O         9.035961   4.065532   -4.370602 O.2        1 UNL1     -0.2851
     45 O         7.682844   6.272904   -4.739797 O.3        1 UNL1     -0.5056
     46 O         3.227527   3.335819   -1.024859 O.2        1 UNL1     -0.2836
     47 C         3.098267   3.071558   3.473548 C.3        1 UNL1     -0.0566
     48 O         2.153601   0.393975   3.208531 O.3        1 UNL1     -0.3909
     49 C         -0.0165   -0.364114   0.995374 C.3        1 UNL1     -0.0577
     50 O         -0.640694   3.182389   1.175452 O.3        1 UNL1     -0.3910
     51 O         -2.250038   3.655982   -1.129015 O.3        1 UNL1     -0.3753
     52 C         -0.036309   0.708691   -1.848009 C.3        1 UNL1     -0.0564
     53 O         -2.747704   -0.648934   -0.61611 O.3        1 UNL1     -0.4608
     54 C         -2.565836   -1.484511   0.454714 C.2        1 UNL1     0.3042
     55 O         -1.744244   -2.39418   0.561145 O.2        1 UNL1     -0.2512
     56 C         -3.460443   -1.171788   1.620303 C.3        1 UNL1     0.0332
     57 C         -3.688828   2.669574   0.742153 C.3        1 UNL1     -0.0567
     58 C         1.993565   3.977015   -4.012046 C.3        1 UNL1     0.0210
     59 C         -3.256942   4.442798   -1.763784 C.3        1 UNL1     0.0372
     60 C         -0.122095   3.503255   -2.057118 C.2        1 UNL1     -0.0208
     61 C         0.32486   4.635692   -1.512542 C.2        1 UNL1     0.0882
     62 H         3.132805   2.88653   1.340735 H        1 UNL1     0.0365
     63 H         5.068783   3.360842   0.896614 H        1 UNL1     0.0576
     64 H         7.035775   1.776463   2.662248 H        1 UNL1     0.0615
     65 H         7.437518   3.761397   0.283908 H        1 UNL1     0.0622
     66 H         -1.888508   2.973928   -3.016148 H        1 UNL1     0.0645
     67 H         -1.906563   0.885644   -2.643392 H        1 UNL1     0.0362
     68 H         -3.456492   1.117352   -1.10716 H        1 UNL1     0.0741
     69 H         -3.051614   0.901924   1.503597 H        1 UNL1     0.0359
     70 H         -1.521367   2.099668   2.60961 H        1 UNL1     0.0600
     71 H         -0.118719   0.464153   2.859368 H        1 UNL1     0.0348
     72 H         1.476367   2.153202   2.128029 H        1 UNL1     0.0602
     73 H         0.488139   2.965696   -2.739681 H        1 UNL1     0.0628
     74 H         -0.21454   5.21357   -0.761315 H        1 UNL1     0.1022
     75 H         10.934862   2.497749   2.025737 H        1 UNL1     0.0279
     76 H         10.54966   1.07444   1.143065 H        1 UNL1     0.0279
     77 H         11.456859   2.449058   0.392924 H        1 UNL1     0.0279
     78 H         9.826426   1.671887   -1.57615 H        1 UNL1     0.1553
     79 H         8.364477   0.563918   -0.826928 H        1 UNL1     0.1484
     80 H         5.070344   -0.946316   -1.970332 H        1 UNL1     0.0317
     81 H         6.114064   -0.021372   -3.040403 H        1 UNL1     0.0317
     82 H         8.163185   -1.072855   -2.045823 H        1 UNL1     0.0428
     83 H         7.042614   -2.252235   -2.690095 H        1 UNL1     0.0428
     84 H         6.968613   -1.658281   1.522372 H        1 UNL1     0.0428
     85 H         8.127525   -0.730767   0.635939 H        1 UNL1     0.0428
     86 H         6.008869   0.420762   1.276352 H        1 UNL1     0.0317
     87 H         5.03556   -0.667033   0.397875 H        1 UNL1     0.0317
     88 H         7.404631   -3.959193   0.324567 H        1 UNL1     0.0429
     89 H         7.892867   -3.895031   -1.370645 H        1 UNL1     0.0429
     90 H         9.557408   -3.586566   0.8845 H        1 UNL1     0.0308
     91 H         11.26202   -3.57086   -0.688194 H        1 UNL1     0.0233
     92 H         9.934734   -3.880821   -1.836119 H        1 UNL1     0.0233
     93 H         10.56113   -2.259327   -1.628779 H        1 UNL1     0.0233
     94 H         8.309958   -1.105305   0.544823 H        1 UNL1     0.0233
     95 H         9.702919   -1.503863   1.562241 H        1 UNL1     0.0233
     96 H         9.954865   -0.893832   -0.089538 H        1 UNL1     0.0233
     97 H         5.318955   7.219666   -6.015777 H        1 UNL1     0.0280
     98 H         3.851132   7.410744   -5.095902 H        1 UNL1     0.0280
     99 H         5.320378   8.313066   -4.619602 H        1 UNL1     0.0280
     100 H         8.250667   5.68017   -5.200086 H        1 UNL1     0.2922
     101 H         2.497683   2.442363   4.130105 H        1 UNL1     0.0236
     102 H         2.613377   4.024505   3.264368 H        1 UNL1     0.0236
     103 H         3.986346   3.333652   4.07256 H        1 UNL1     0.0236
     104 H         2.194382   -0.54911   2.955753 H        1 UNL1     0.2098
     105 H         0.773891   -1.104212   1.092061 H        1 UNL1     0.0234
     106 H         -0.992949   -0.841183   1.078316 H        1 UNL1     0.0234
     107 H         0.0   0.0   0.0 H        1 UNL1     0.0234
     108 H         0.200016   3.337029   1.647745 H        1 UNL1     0.2098
     109 H         0.229659   0.473293   -2.88799 H        1 UNL1     0.0234
     110 H         0.74054   1.341385   -1.40535 H        1 UNL1     0.0234
     111 H         0.04651   -0.2384   -1.298366 H        1 UNL1     0.0234
     112 H         -3.63392   -2.077232   2.209729 H        1 UNL1     0.0342
     113 H         -3.059487   -0.372161   2.24133 H        1 UNL1     0.0342
     114 H         -4.429719   -0.834435   1.228049 H        1 UNL1     0.0342
     115 H         -3.274098   3.663789   0.525996 H        1 UNL1     0.0234
     116 H         -4.469968   2.472343   0.005289 H        1 UNL1     0.0234
     117 H         -4.176545   2.849193   1.715708 H        1 UNL1     0.0234
     118 H         2.45496   4.341237   -4.946638 H        1 UNL1     0.0309
     119 H         2.226028   2.914548   -3.888238 H        1 UNL1     0.0309
     120 H         0.9199   4.029915   -4.22312 H        1 UNL1     0.0309
     121 H         -4.085387   4.545503   -1.063437 H        1 UNL1     0.0524
     122 H         -2.902039   5.457593   -2.009289 H        1 UNL1     0.0524
     123 H         -3.59448   3.95725   -2.67505 H        1 UNL1     0.0524
@<TRIPOS>BOND
     1     1     2    1
     2     1    42    1
     3     2     3    2
     4     3     4    1
     5     4     5    2
     6     5     7    1
     7     6    75    1
     8     6    76    1
     9     6    77    1
    10     7     9   am
    11     9    10    1
    12    10    11    2
    13    10    43    1
    14    11    14    1
    15    11    15    1
    16    12    13   ar
    17    12    27   ar
    18    12    43    1
    19    13    14    1
    20    13    30   ar
    21    14    17    2
    22    15    16    1
    23    16    17    1
    24    16    18    1
    25    16    22    1
    26    18    19    1
    27    19    20    1
    28    20    21    1
    29    21    22    1
    30    23    24    1
    31    23    88    1
    32    23    89    1
    33    24    25    1
    34    24    26    1
    35    24    90    1
    36    25    91    1
    37    25    92    1
    38    25    93    1
    39    26    94    1
    40    26    95    1
    41    26    96    1
    42    27    28   ar
    43    28    29   ar
    44    29    30   ar
    45    29    31    1
    46    30    33    1
    47    31    32    1
    48    32    33    1
    49    32    35    1
    50    34    97    1
    51    34    98    1
    52    34    99    1
    53    35    61    1
    54    36    37    1
    55    36    60    1
    56    37    38    1
    57    38    39    1
    58    39    40    1
    59    40    41    1
    60    41    42    1
    61    45   100    1
    62    47   101    1
    63    47   102    1
    64    47   103    1
    65    48   104    1
    66    49   105    1
    67    49   106    1
    68    49   107    1
    69    50   108    1
    70    51    59    1
    71    52   109    1
    72    52   110    1
    73    52   111    1
    74    53    54    1
    75    54    55    2
    76    54    56    1
    77    56   112    1
    78    56   113    1
    79    56   114    1
    80    57   115    1
    81    57   116    1
    82    57   117    1
    83    58   118    1
    84    58   119    1
    85    58   120    1
    86    59   121    1
    87    59   122    1
    88    59   123    1
    89    60    61    2
    90     1    47    1
    91     1    62    1
    92     2    63    1
    93     3    64    1
    94     4    65    1
    95     5     6    1
    96     7     8    2
    97     9    78    1
    98    15    79    1
    99    18    80    1
   100    18    81    1
   101    19    82    1
   102    19    83    1
   103    20    23    1
   104    21    84    1
   105    21    85    1
   106    22    86    1
   107    22    87    1
   108    27    45    1
   109    28    34    1
   110    32    58    1
   111    33    46    2
   112    36    51    1
   113    36    66    1
   114    37    52    1
   115    37    67    1
   116    38    53    1
   117    38    68    1
   118    42    48    1
   119    42    72    1
   120    43    44    2
   121    60    73    1
   122    61    74    1
   123    39    69    1
   124    39    57    1
   125    40    70    1
   126    40    50    1
   127    41    71    1
   128    41    49    1
