@<TRIPOS>MOLECULE
*****
 123 128 0 0 0
SMALL
GASTEIGER

@<TRIPOS>ATOM
     1 C         1.858084   -1.151357   5.02331 C.3        1 UNL1     0.0009
     2 C         3.355489   -1.461642   6.071422 C.2        1 UNL1     -0.0787
     3 C         4.239005   -2.379472   6.759197 C.2        1 UNL1     -0.0649
     4 C         5.692368   -2.0271   7.552877 C.2        1 UNL1     -0.0542
     5 C         6.909148   -2.564795   8.040123 C.2        1 UNL1     0.0115
     6 C         7.675254   -3.886498   8.32209 C.3        1 UNL1     -0.0348
     7 C         8.125929   -1.567881   8.360427 C.2        1 UNL1     0.2441
     8 O         8.421186   -1.221589   9.495958 O.2        1 UNL1     -0.2702
     9 N         8.989955   -1.326335   7.278176 N.am        1 UNL1     -0.2772
     10 C         8.534401   -0.26723   6.527118 C.2        1 UNL1     0.1049
     11 C         7.600946   -0.545117   5.635118 C.2        1 UNL1     0.0801
     12 C         7.710054   2.087165   6.713165 C.ar        1 UNL1     0.0753
     13 C         6.599   1.67877   5.908564 C.ar        1 UNL1     0.0305
     14 C         6.577718   0.382341   5.234865 C.2        1 UNL1     0.0924
     15 N         7.161527   -1.733343   5.18617 N.pl3        1 UNL1     -0.3170
     16 C         6.257922   -1.483795   4.094621 C.3        1 UNL1     0.1275
     17 N         5.688004   -0.115996   4.381052 N.2        1 UNL1     -0.2557
     18 C         7.102969   -1.334781   2.833118 C.3        1 UNL1     0.0016
     19 C         7.956176   -2.582469   2.669101 C.3        1 UNL1     0.0026
     20 N         7.078205   -3.740858   2.577821 N.3        1 UNL1     -0.3018
     21 C         6.181525   -3.932861   3.719516 C.3        1 UNL1     0.0026
     22 C         5.33081   -2.669691   3.862968 C.3        1 UNL1     0.0016
     23 C         7.764278   -4.934072   2.123744 C.3        1 UNL1     0.0012
     24 C         8.066826   -4.842041   0.619832 C.3        1 UNL1     -0.0339
     25 C         7.987351   -6.221191   -0.055213 C.3        1 UNL1     -0.0615
     26 C         7.132324   -3.842435   -0.039163 C.3        1 UNL1     -0.0615
     27 C         7.777706   3.369491   7.252777 C.ar        1 UNL1     0.1347
     28 C         6.817862   4.339482   7.025033 C.ar        1 UNL1     0.0342
     29 C         5.70945   3.899636   6.270632 C.ar        1 UNL1     0.1435
     30 C         5.610733   2.607168   5.753911 C.ar        1 UNL1     0.0774
     31 O         4.744244   4.756246   5.871126 O.3        1 UNL1     -0.4436
     32 C         4.091958   4.085422   4.782369 C.3        1 UNL1     0.3143
     33 C         4.37615   2.612576   4.997246 C.2        1 UNL1     0.2504
     34 C         6.944212   5.800148   7.357586 C.3        1 UNL1     -0.0327
     35 O         2.681031   4.267422   4.95387 O.2        1 UNL1     -0.4528
     36 C         1.198046   4.256516   1.459771 C.3        1 UNL1     0.0854
     37 C         1.288034   3.146754   0.342698 C.3        1 UNL1     0.0236
     38 C         -0.124843   2.639417   -0.221334 C.3        1 UNL1     0.1131
     39 C         -1.254206   2.181539   0.787208 C.3        1 UNL1     0.0200
     40 C         -0.878052   1.219006   2.096588 C.3        1 UNL1     0.0661
     41 C         0.028939   -0.213713   2.04868 C.3        1 UNL1     0.0091
     42 C         1.160194   -0.948131   3.292181 C.3        1 UNL1     0.0661
     43 C         8.83103   1.12913   6.880026 C.2        1 UNL1     0.2131
     44 O         9.961652   1.462651   7.185307 O.2        1 UNL1     -0.2851
     45 O         8.870824   3.67195   8.062128 O.3        1 UNL1     -0.5056
     46 O         3.719652   1.658962   4.643009 O.2        1 UNL1     -0.2836
     47 C         0.565425   -1.320456   5.866174 C.3        1 UNL1     -0.0566
     48 O         0.57419   -2.306573   3.190435 O.3        1 UNL1     -0.3909
     49 C         0.72585   -0.305546   0.70951 C.3        1 UNL1     -0.0577
     50 O         -0.478374   2.007215   3.199632 O.3        1 UNL1     -0.3910
     51 O         -0.095035   4.53811   1.94565 O.3        1 UNL1     -0.3753
     52 C         2.484327   2.17015   0.587807 C.3        1 UNL1     -0.0564
     53 O         -0.016754   1.862515   -1.500813 O.3        1 UNL1     -0.4608
     54 C         -0.96998   1.012756   -1.998005 C.2        1 UNL1     0.3042
     55 O         -0.965286   -0.217133   -1.963517 O.2        1 UNL1     -0.2512
     56 C         -2.155746   1.719669   -2.590413 C.3        1 UNL1     0.0332
     57 C         -2.216164   3.434995   1.03552 C.3        1 UNL1     -0.0567
     58 C         4.807246   4.54842   3.491816 C.3        1 UNL1     0.0210
     59 C         -0.183531   4.689155   3.361707 C.3        1 UNL1     0.0372
     60 C         2.062064   4.02324   2.648979 C.2        1 UNL1     -0.0208
     61 C         1.792326   4.140476   3.949841 C.2        1 UNL1     0.0882
     62 H         2.098525   -0.08138   5.030342 H        1 UNL1     0.0365
     63 H         3.672899   -0.43804   6.281089 H        1 UNL1     0.0576
     64 H         4.113791   -3.461726   6.680732 H        1 UNL1     0.0615
     65 H         5.679757   -0.937966   7.648332 H        1 UNL1     0.0622
     66 H         1.586836   5.164889   0.978371 H        1 UNL1     0.0645
     67 H         1.695188   3.680709   -0.533474 H        1 UNL1     0.0362
     68 H         -0.492904   3.576828   -0.665535 H        1 UNL1     0.0741
     69 H         -1.976842   1.580832   0.251153 H        1 UNL1     0.0359
     70 H         -1.88962   0.859331   2.365707 H        1 UNL1     0.0600
     71 H         -0.785288   -0.953741   1.920812 H        1 UNL1     0.0348
     72 H         0.529136   -0.233873   3.840741 H        1 UNL1     0.0602
     73 H         3.058287   3.845934   2.327496 H        1 UNL1     0.0628
     74 H         0.790801   4.26411   4.363242 H        1 UNL1     0.1022
     75 H         7.02117   -4.61052   8.865229 H        1 UNL1     0.0279
     76 H         7.988759   -4.460409   7.452947 H        1 UNL1     0.0279
     77 H         8.497819   -3.756287   9.040514 H        1 UNL1     0.0279
     78 H         9.015298   -2.143457   6.671754 H        1 UNL1     0.1553
     79 H         7.67615   -2.589546   5.281103 H        1 UNL1     0.1484
     80 H         6.438575   -1.187983   1.973003 H        1 UNL1     0.0317
     81 H         7.740546   -0.446138   2.89195 H        1 UNL1     0.0317
     82 H         8.675557   -2.695032   3.49356 H        1 UNL1     0.0428
     83 H         8.551941   -2.454351   1.764833 H        1 UNL1     0.0428
     84 H         5.478453   -4.761637   3.590551 H        1 UNL1     0.0428
     85 H         6.733441   -4.191026   4.633878 H        1 UNL1     0.0428
     86 H         4.600655   -2.896495   4.617568 H        1 UNL1     0.0317
     87 H         4.725369   -2.521184   2.960481 H        1 UNL1     0.0317
     88 H         8.71503   -5.009202   2.667546 H        1 UNL1     0.0429
     89 H         7.187959   -5.838605   2.357093 H        1 UNL1     0.0429
     90 H         9.078566   -4.442981   0.480748 H        1 UNL1     0.0308
     91 H         8.107973   -7.028277   0.673597 H        1 UNL1     0.0233
     92 H         7.032457   -6.344055   -0.571634 H        1 UNL1     0.0233
     93 H         8.765978   -6.359726   -0.815071 H        1 UNL1     0.0233
     94 H         6.145249   -4.292071   -0.191955 H        1 UNL1     0.0233
     95 H         7.007994   -2.966852   0.604156 H        1 UNL1     0.0233
     96 H         7.517218   -3.515869   -1.009307 H        1 UNL1     0.0233
     97 H         6.836579   6.428903   6.478773 H        1 UNL1     0.0280
     98 H         6.17031   6.132721   8.061665 H        1 UNL1     0.0280
     99 H         7.934558   5.993258   7.801454 H        1 UNL1     0.0280
     100 H         9.048626   3.036792   8.733383 H        1 UNL1     0.2922
     101 H         -0.262437   -0.8081   5.376488 H        1 UNL1     0.0236
     102 H         0.68526   -1.006301   6.902479 H        1 UNL1     0.0236
     103 H         0.245662   -2.37413   5.927136 H        1 UNL1     0.0236
     104 H         -0.006177   -2.319321   2.404318 H        1 UNL1     0.2098
     105 H         1.588067   0.348449   0.606148 H        1 UNL1     0.0234
     106 H         0.980231   -1.318257   0.397048 H        1 UNL1     0.0234
     107 H         0.0   0.0   -0.0 H        1 UNL1     0.0234
     108 H         -0.05791   1.408665   3.846714 H        1 UNL1     0.2098
     109 H         3.41277   2.523484   0.11785 H        1 UNL1     0.0234
     110 H         2.664662   1.968331   1.64917 H        1 UNL1     0.0234
     111 H         2.291954   1.178428   0.157196 H        1 UNL1     0.0234
     112 H         -2.434009   1.249332   -3.538409 H        1 UNL1     0.0342
     113 H         -3.001198   1.746541   -1.904605 H        1 UNL1     0.0342
     114 H         -1.865648   2.758048   -2.802017 H        1 UNL1     0.0342
     115 H         -3.259546   3.125501   1.18637 H        1 UNL1     0.0234
     116 H         -1.929914   4.051955   1.889611 H        1 UNL1     0.0234
     117 H         -2.314611   4.094923   0.156461 H        1 UNL1     0.0234
     118 H         4.197484   5.264987   2.914123 H        1 UNL1     0.0309
     119 H         5.792376   4.986826   3.680287 H        1 UNL1     0.0309
     120 H         4.970721   3.728078   2.784412 H        1 UNL1     0.0309
     121 H         -0.345708   3.700093   3.789272 H        1 UNL1     0.0524
     122 H         0.745756   5.091307   3.798439 H        1 UNL1     0.0524
     123 H         -1.007907   5.34833   3.618586 H        1 UNL1     0.0524
@<TRIPOS>BOND
     1     1     2    1
     2     1    42    1
     3     2     3    2
     4     3     4    1
     5     4     5    2
     6     5     7    1
     7     6    75    1
     8     6    76    1
     9     6    77    1
    10     7     9   am
    11     9    10    1
    12    10    11    2
    13    10    43    1
    14    11    14    1
    15    11    15    1
    16    12    13   ar
    17    12    27   ar
    18    12    43    1
    19    13    14    1
    20    13    30   ar
    21    14    17    2
    22    15    16    1
    23    16    17    1
    24    16    18    1
    25    16    22    1
    26    18    19    1
    27    19    20    1
    28    20    21    1
    29    21    22    1
    30    23    24    1
    31    23    88    1
    32    23    89    1
    33    24    25    1
    34    24    26    1
    35    24    90    1
    36    25    91    1
    37    25    92    1
    38    25    93    1
    39    26    94    1
    40    26    95    1
    41    26    96    1
    42    27    28   ar
    43    28    29   ar
    44    29    30   ar
    45    29    31    1
    46    30    33    1
    47    31    32    1
    48    32    33    1
    49    32    35    1
    50    34    97    1
    51    34    98    1
    52    34    99    1
    53    35    61    1
    54    36    37    1
    55    36    60    1
    56    37    38    1
    57    38    39    1
    58    39    40    1
    59    40    41    1
    60    41    42    1
    61    45   100    1
    62    47   101    1
    63    47   102    1
    64    47   103    1
    65    48   104    1
    66    49   105    1
    67    49   106    1
    68    49   107    1
    69    50   108    1
    70    51    59    1
    71    52   109    1
    72    52   110    1
    73    52   111    1
    74    53    54    1
    75    54    55    2
    76    54    56    1
    77    56   112    1
    78    56   113    1
    79    56   114    1
    80    57   115    1
    81    57   116    1
    82    57   117    1
    83    58   118    1
    84    58   119    1
    85    58   120    1
    86    59   121    1
    87    59   122    1
    88    59   123    1
    89    60    61    2
    90     1    47    1
    91     1    62    1
    92     2    63    1
    93     3    64    1
    94     4    65    1
    95     5     6    1
    96     7     8    2
    97     9    78    1
    98    15    79    1
    99    18    80    1
   100    18    81    1
   101    19    82    1
   102    19    83    1
   103    20    23    1
   104    21    84    1
   105    21    85    1
   106    22    86    1
   107    22    87    1
   108    27    45    1
   109    28    34    1
   110    32    58    1
   111    33    46    2
   112    36    51    1
   113    36    66    1
   114    37    52    1
   115    37    67    1
   116    38    53    1
   117    38    68    1
   118    42    48    1
   119    42    72    1
   120    43    44    2
   121    60    73    1
   122    61    74    1
   123    39    69    1
   124    39    57    1
   125    40    70    1
   126    40    50    1
   127    41    71    1
   128    41    49    1
