@<TRIPOS>MOLECULE
*****
 123 128 0 0 0
SMALL
GASTEIGER

@<TRIPOS>ATOM
     1 C         2.693065   -1.41363   -3.817364 C.3        1 UNL1     0.0009
     2 C         2.876687   -2.855871   -4.967695 C.2        1 UNL1     -0.0787
     3 C         3.387543   -4.180965   -5.249114 C.2        1 UNL1     -0.0649
     4 C         3.089546   -5.143878   -6.609391 C.2        1 UNL1     -0.0542
     5 C         3.10947   -6.463375   -7.124763 C.2        1 UNL1     0.0115
     6 C         3.574751   -7.91754   -6.83799 C.3        1 UNL1     -0.0348
     7 C         2.272579   -6.790535   -8.455014 C.2        1 UNL1     0.2441
     8 O         2.791716   -6.902742   -9.557027 O.2        1 UNL1     -0.2702
     9 N         0.945569   -7.196761   -8.23101 N.am        1 UNL1     -0.2772
     10 C         0.112191   -6.103465   -8.17177 C.2        1 UNL1     0.1049
     11 C         0.049246   -5.481966   -7.008156 C.2        1 UNL1     0.0801
     12 C         -0.477611   -3.991387   -9.375346 C.ar        1 UNL1     0.0753
     13 C         -0.32766   -3.325178   -8.117455 C.ar        1 UNL1     0.0305
     14 C         -0.188209   -4.070759   -6.86857 C.2        1 UNL1     0.0924
     15 N         0.504822   -5.859645   -5.801368 N.pl3        1 UNL1     -0.3170
     16 C         0.029054   -4.906599   -4.834102 C.3        1 UNL1     0.1275
     17 N         -0.139028   -3.626633   -5.615869 N.2        1 UNL1     -0.2557
     18 C         -1.375243   -5.340365   -4.424836 C.3        1 UNL1     0.0016
     19 C         -1.313447   -6.772262   -3.91745 C.3        1 UNL1     0.0026
     20 N         -0.397232   -6.828754   -2.786792 N.3        1 UNL1     -0.3018
     21 C         0.965368   -6.371576   -3.067291 C.3        1 UNL1     0.0026
     22 C         0.87993   -4.929803   -3.571161 C.3        1 UNL1     0.0016
     23 C         -0.491778   -8.070808   -2.045842 C.3        1 UNL1     0.0012
     24 C         -1.821654   -8.14052   -1.278818 C.3        1 UNL1     -0.0339
     25 C         -2.498564   -9.510365   -1.450212 C.3        1 UNL1     -0.0615
     26 C         -1.59615   -7.807776   0.185835 C.3        1 UNL1     -0.0615
     27 C         -0.730802   -3.277701   -10.54439 C.ar        1 UNL1     0.1347
     28 C         -0.893597   -1.904138   -10.573907 C.ar        1 UNL1     0.0342
     29 C         -0.693225   -1.264678   -9.332091 C.ar        1 UNL1     0.1435
     30 C         -0.40332   -1.963182   -8.159374 C.ar        1 UNL1     0.0774
     31 O         -0.924494   0.056948   -9.174523 O.3        1 UNL1     -0.4436
     32 C         -1.079984   0.231567   -7.758117 C.3        1 UNL1     0.3143
     33 C         -0.356321   -0.943539   -7.132297 C.2        1 UNL1     0.2504
     34 C         -1.411971   -1.102461   -11.735243 C.3        1 UNL1     -0.0327
     35 O         -0.354009   1.411518   -7.392153 O.2        1 UNL1     -0.4528
     36 C         -2.17642   2.867813   -4.397807 C.3        1 UNL1     0.0854
     37 C         -2.504284   2.197447   -3.008333 C.3        1 UNL1     0.0236
     38 C         -1.984169   3.00919   -1.726812 C.3        1 UNL1     0.1131
     39 C         -0.477989   3.487794   -1.658762 C.3        1 UNL1     0.0200
     40 C         0.75543   2.464361   -2.121039 C.3        1 UNL1     0.0661
     41 C         0.964375   0.862633   -1.602949 C.3        1 UNL1     0.0091
     42 C         1.672283   -0.587547   -2.475443 C.3        1 UNL1     0.0661
     43 C         -0.443551   -5.474992   -9.379465 C.2        1 UNL1     0.2131
     44 O         -0.931691   -6.156983   -10.26227 O.2        1 UNL1     -0.2851
     45 O         -0.817806   -3.998045   -11.733917 O.3        1 UNL1     -0.5056
     46 O         0.161879   -1.014594   -6.040385 O.2        1 UNL1     -0.2836
     47 C         4.019618   -0.610671   -3.743234 C.3        1 UNL1     -0.0566
     48 O         2.534309   -0.993909   -1.339267 O.3        1 UNL1     -0.3909
     49 C         -0.309045   0.396286   -0.93331 C.3        1 UNL1     -0.0577
     50 O         0.988298   2.556508   -3.512083 O.3        1 UNL1     -0.3910
     51 O         -1.326105   3.991426   -4.35434 O.3        1 UNL1     -0.3753
     52 C         -2.440933   0.637019   -3.085803 C.3        1 UNL1     -0.0564
     53 O         -2.598827   2.552047   -0.436253 O.3        1 UNL1     -0.4608
     54 C         -1.950825   2.47174   0.76856 C.2        1 UNL1     0.3042
     55 O         -2.452124   2.272669   1.874411 O.2        1 UNL1     -0.2512
     56 C         -0.457591   2.59273   0.657533 C.3        1 UNL1     0.0332
     57 C         -0.427986   4.998714   -2.181062 C.3        1 UNL1     -0.0567
     58 C         -2.592589   0.099701   -7.464579 C.3        1 UNL1     0.0210
     59 C         -1.969234   5.239913   -4.606394 C.3        1 UNL1     0.0372
     60 C         -1.617852   1.946267   -5.42441 C.2        1 UNL1     -0.0208
     61 C         -0.592843   2.105331   -6.262743 C.2        1 UNL1     0.0882
     62 H         2.068537   -0.917405   -4.569984 H        1 UNL1     0.0365
     63 H         2.384765   -2.467101   -5.861754 H        1 UNL1     0.0576
     64 H         3.909621   -4.766519   -4.489069 H        1 UNL1     0.0615
     65 H         2.643776   -4.45002   -7.327259 H        1 UNL1     0.0622
     66 H         -3.152444   3.193442   -4.784316 H        1 UNL1     0.0645
     67 H         -3.598133   2.307766   -2.90891 H        1 UNL1     0.0362
     68 H         -2.577918   3.929257   -1.838441 H        1 UNL1     0.0741
     69 H         -0.229282   3.709038   -0.629392 H        1 UNL1     0.0359
     70 H         1.617362   2.984662   -1.661234 H        1 UNL1     0.0600
     71 H         1.622442   1.027029   -0.727232 H        1 UNL1     0.0348
     72 H         2.038357   0.298697   -3.013844 H        1 UNL1     0.0602
     73 H         -2.25336   1.100877   -5.517645 H        1 UNL1     0.0628
     74 H         0.138055   2.911997   -6.197057 H        1 UNL1     0.1022
     75 H         4.636877   -7.928516   -6.493313 H        1 UNL1     0.0279
     76 H         3.062206   -8.441296   -6.03422 H        1 UNL1     0.0279
     77 H         3.63587   -8.531813   -7.748283 H        1 UNL1     0.0279
     78 H         0.881852   -7.679304   -7.337047 H        1 UNL1     0.1553
     79 H         0.733251   -6.807465   -5.563903 H        1 UNL1     0.1484
     80 H         -1.749489   -4.65757   -3.652504 H        1 UNL1     0.0317
     81 H         -2.068749   -5.268456   -5.269544 H        1 UNL1     0.0317
     82 H         -1.008436   -7.472023   -4.709421 H        1 UNL1     0.0428
     83 H         -2.325407   -7.061995   -3.632774 H        1 UNL1     0.0428
     84 H         1.610939   -6.348659   -2.183818 H        1 UNL1     0.0428
     85 H         1.487391   -7.044225   -3.761806 H        1 UNL1     0.0428
     86 H         1.89542   -4.585944   -3.63845 H        1 UNL1     0.0317
     87 H         0.445189   -4.287079   -2.795918 H        1 UNL1     0.0317
     88 H         -0.458731   -8.900384   -2.764178 H        1 UNL1     0.0429
     89 H         0.362902   -8.197334   -1.368873 H        1 UNL1     0.0429
     90 H         -2.497795   -7.366641   -1.661125 H        1 UNL1     0.0308
     91 H         -1.759281   -10.30432   -1.592337 H        1 UNL1     0.0233
     92 H         -3.116663   -9.747265   -0.581051 H        1 UNL1     0.0233
     93 H         -3.167859   -9.539739   -2.318553 H        1 UNL1     0.0233
     94 H         -1.834458   -8.674937   0.811196 H        1 UNL1     0.0233
     95 H         -0.546669   -7.549744   0.353082 H        1 UNL1     0.0233
     96 H         -2.221091   -6.96912   0.505325 H        1 UNL1     0.0233
     97 H         -2.302149   -0.537437   -11.475317 H        1 UNL1     0.0280
     98 H         -0.679925   -0.364364   -12.088196 H        1 UNL1     0.0280
     99 H         -1.663302   -1.779422   -12.568101 H        1 UNL1     0.0280
     100 H         -0.110293   -4.601391   -11.878907 H        1 UNL1     0.2922
     101 H         3.924925   0.309755   -4.318999 H        1 UNL1     0.0236
     102 H         4.890378   -1.192834   -4.042979 H        1 UNL1     0.0236
     103 H         4.244721   -0.276669   -2.716606 H        1 UNL1     0.0236
     104 H         2.881883   -0.179133   -0.926589 H        1 UNL1     0.2098
     105 H         -1.028845   1.186985   -0.737111 H        1 UNL1     0.0234
     106 H         -0.797742   -0.446881   -1.42134 H        1 UNL1     0.0234
     107 H         0.0   -0.0   0.0 H        1 UNL1     0.0234
     108 H         0.156164   2.314193   -3.962201 H        1 UNL1     0.2098
     109 H         -3.165782   0.226343   -3.802498 H        1 UNL1     0.0234
     110 H         -1.440092   0.257948   -3.318969 H        1 UNL1     0.0234
     111 H         -2.682742   0.173697   -2.119984 H        1 UNL1     0.0234
     112 H         -0.001999   2.499628   1.648045 H        1 UNL1     0.0342
     113 H         -0.038134   1.864922   -0.035428 H        1 UNL1     0.0342
     114 H         -0.222272   3.594065   0.271374 H        1 UNL1     0.0342
     115 H         -1.089663   5.654357   -1.598392 H        1 UNL1     0.0234
     116 H         0.569995   5.44123   -2.164872 H        1 UNL1     0.0234
     117 H         -0.841019   5.127089   -3.196377 H        1 UNL1     0.0234
     118 H         -3.04285   1.063112   -7.167744 H        1 UNL1     0.0309
     119 H         -3.158454   -0.316554   -8.304062 H        1 UNL1     0.0309
     120 H         -2.799335   -0.550451   -6.607453 H        1 UNL1     0.0309
     121 H         -1.234485   6.028003   -4.443868 H        1 UNL1     0.0524
     122 H         -2.323193   5.325573   -5.647265 H        1 UNL1     0.0524
     123 H         -2.813323   5.370166   -3.935095 H        1 UNL1     0.0524
@<TRIPOS>BOND
     1     1     2    1
     2     1    42    1
     3     2     3    2
     4     3     4    1
     5     4     5    2
     6     5     7    1
     7     6    75    1
     8     6    76    1
     9     6    77    1
    10     7     9   am
    11     9    10    1
    12    10    11    2
    13    10    43    1
    14    11    14    1
    15    11    15    1
    16    12    13   ar
    17    12    27   ar
    18    12    43    1
    19    13    14    1
    20    13    30   ar
    21    14    17    2
    22    15    16    1
    23    16    17    1
    24    16    18    1
    25    16    22    1
    26    18    19    1
    27    19    20    1
    28    20    21    1
    29    21    22    1
    30    23    24    1
    31    23    88    1
    32    23    89    1
    33    24    25    1
    34    24    26    1
    35    24    90    1
    36    25    91    1
    37    25    92    1
    38    25    93    1
    39    26    94    1
    40    26    95    1
    41    26    96    1
    42    27    28   ar
    43    28    29   ar
    44    29    30   ar
    45    29    31    1
    46    30    33    1
    47    31    32    1
    48    32    33    1
    49    32    35    1
    50    34    97    1
    51    34    98    1
    52    34    99    1
    53    35    61    1
    54    36    37    1
    55    36    60    1
    56    37    38    1
    57    38    39    1
    58    39    40    1
    59    40    41    1
    60    41    42    1
    61    45   100    1
    62    47   101    1
    63    47   102    1
    64    47   103    1
    65    48   104    1
    66    49   105    1
    67    49   106    1
    68    49   107    1
    69    50   108    1
    70    51    59    1
    71    52   109    1
    72    52   110    1
    73    52   111    1
    74    53    54    1
    75    54    55    2
    76    54    56    1
    77    56   112    1
    78    56   113    1
    79    56   114    1
    80    57   115    1
    81    57   116    1
    82    57   117    1
    83    58   118    1
    84    58   119    1
    85    58   120    1
    86    59   121    1
    87    59   122    1
    88    59   123    1
    89    60    61    2
    90     1    47    1
    91     1    62    1
    92     2    63    1
    93     3    64    1
    94     4    65    1
    95     5     6    1
    96     7     8    2
    97     9    78    1
    98    15    79    1
    99    18    80    1
   100    18    81    1
   101    19    82    1
   102    19    83    1
   103    20    23    1
   104    21    84    1
   105    21    85    1
   106    22    86    1
   107    22    87    1
   108    27    45    1
   109    28    34    1
   110    32    58    1
   111    33    46    2
   112    36    51    1
   113    36    66    1
   114    37    52    1
   115    37    67    1
   116    38    53    1
   117    38    68    1
   118    42    48    1
   119    42    72    1
   120    43    44    2
   121    60    73    1
   122    61    74    1
   123    39    69    1
   124    39    57    1
   125    40    70    1
   126    40    50    1
   127    41    71    1
   128    41    49    1
