@<TRIPOS>MOLECULE
*****
 123 128 0 0 0
SMALL
GASTEIGER

@<TRIPOS>ATOM
     1 C         5.140899   0.541319   1.810359 C.3        1 UNL1     0.0009
     2 C         6.898251   0.918318   1.355801 C.2        1 UNL1     -0.0787
     3 C         8.242112   0.470315   1.056838 C.2        1 UNL1     -0.0649
     4 C         9.557409   1.400489   0.53614 C.2        1 UNL1     -0.0542
     5 C         10.821095   1.368751   -0.103521 C.2        1 UNL1     0.0115
     6 C         11.942252   0.428361   -0.625055 C.3        1 UNL1     -0.0348
     7 C         11.427644   2.732933   -0.693515 C.2        1 UNL1     0.2441
     8 O         12.304899   3.370666   -0.127611 O.2        1 UNL1     -0.2702
     9 N         11.072209   3.007978   -2.025494 N.am        1 UNL1     -0.2772
     10 C         9.887332   3.705995   -2.071976 C.2        1 UNL1     0.1049
     11 C         8.783578   2.984846   -1.995212 C.2        1 UNL1     0.0801
     12 C         8.709926   5.682864   -1.090632 C.ar        1 UNL1     0.0753
     13 C         7.609613   4.803138   -0.837647 C.ar        1 UNL1     0.0305
     14 C         7.561721   3.455995   -1.401528 C.2        1 UNL1     0.0924
     15 N         8.612384   1.654982   -2.088395 N.pl3        1 UNL1     -0.3170
     16 C         7.19748   1.394581   -2.110606 C.3        1 UNL1     0.1275
     17 N         6.588641   2.55052   -1.355065 N.2        1 UNL1     -0.2557
     18 C         6.733206   1.542152   -3.556419 C.3        1 UNL1     0.0016
     19 C         7.557056   0.609013   -4.429409 C.3        1 UNL1     0.0026
     20 N         7.374132   -0.756464   -3.957138 N.3        1 UNL1     -0.3018
     21 C         7.735939   -0.983598   -2.556469 C.3        1 UNL1     0.0026
     22 C         6.893257   -0.039354   -1.697292 C.3        1 UNL1     0.0016
     23 C         7.869483   -1.747484   -4.891562 C.3        1 UNL1     0.0012
     24 C         6.975112   -1.805131   -6.139975 C.3        1 UNL1     -0.0339
     25 C         7.53967   -0.937356   -7.276768 C.3        1 UNL1     -0.0615
     26 C         6.785446   -3.2468   -6.578607 C.3        1 UNL1     -0.0615
     27 C         8.693121   7.004512   -0.65122 C.ar        1 UNL1     0.1347
     28 C         7.619063   7.568835   0.013602 C.ar        1 UNL1     0.0342
     29 C         6.567684   6.670574   0.294479 C.ar        1 UNL1     0.1435
     30 C         6.586168   5.334507   -0.107768 C.ar        1 UNL1     0.0774
     31 O         5.405586   7.093659   0.838109 O.3        1 UNL1     -0.4436
     32 C         4.463543   6.053712   0.534892 C.3        1 UNL1     0.3143
     33 C         5.302643   4.811785   0.311864 C.2        1 UNL1     0.2504
     34 C         7.424768   9.033505   0.291254 C.3        1 UNL1     -0.0327
     35 O         3.686174   5.82528   1.716741 O.2        1 UNL1     -0.4528
     36 C         0.277113   4.669167   0.512665 C.3        1 UNL1     0.0854
     37 C         -0.091196   3.442089   -0.407198 C.3        1 UNL1     0.0236
     38 C         -1.161889   2.425491   0.218814 C.3        1 UNL1     0.1131
     39 C         -0.94189   1.853189   1.677011 C.3        1 UNL1     0.0200
     40 C         0.566674   1.331372   2.161139 C.3        1 UNL1     0.0661
     41 C         1.571256   0.265397   1.305496 C.3        1 UNL1     0.0091
     42 C         3.400896   0.174078   1.208128 C.3        1 UNL1     0.0661
     43 C         9.831398   5.166937   -1.914271 C.2        1 UNL1     0.2131
     44 O         10.60766   5.884039   -2.519184 O.2        1 UNL1     -0.2851
     45 O         9.823236   7.781044   -0.898761 O.3        1 UNL1     -0.5056
     46 O         4.989173   3.652698   0.467135 O.2        1 UNL1     -0.2836
     47 C         5.042951   0.155122   3.310772 C.3        1 UNL1     -0.0566
     48 O         3.453706   -1.290387   1.435436 O.3        1 UNL1     -0.3909
     49 C         1.046857   0.127973   -0.106458 C.3        1 UNL1     -0.0577
     50 O         1.328013   2.406134   2.673948 O.3        1 UNL1     -0.3910
     51 O         -0.23724   4.63181   1.824716 O.3        1 UNL1     -0.3753
     52 C         1.138202   2.947422   -1.237158 C.3        1 UNL1     -0.0564
     53 O         -1.75343   1.481738   -0.787036 O.3        1 UNL1     -0.4608
     54 C         -2.379378   0.298215   -0.494813 C.2        1 UNL1     0.3042
     55 O         -1.981498   -0.838818   -0.745183 O.2        1 UNL1     -0.2512
     56 C         -3.663861   0.468883   0.265245 C.3        1 UNL1     0.0332
     57 C         -1.771266   2.775105   2.68715 C.3        1 UNL1     -0.0567
     58 C         3.791444   6.448184   -0.800849 C.3        1 UNL1     0.0210
     59 C         -0.457626   5.910255   2.418749 C.3        1 UNL1     0.0372
     60 C         1.733587   4.951946   0.630482 C.2        1 UNL1     -0.0208
     61 C         2.475082   5.236192   1.701992 C.2        1 UNL1     0.0882
     62 H         4.914982   1.612641   1.747576 H        1 UNL1     0.0365
     63 H         6.881095   2.01015   1.364673 H        1 UNL1     0.0576
     64 H         8.488996   -0.591317   0.985467 H        1 UNL1     0.0615
     65 H         9.238568   2.429706   0.72198 H        1 UNL1     0.0622
     66 H         -0.158171   5.53868   0.000296 H        1 UNL1     0.0645
     67 H         -0.67083   3.890387   -1.232796 H        1 UNL1     0.0362
     68 H         -2.029915   3.097745   0.2971 H        1 UNL1     0.0741
     69 H         -1.549699   0.966465   1.798242 H        1 UNL1     0.0359
     70 H         0.286506   0.740122   3.053881 H        1 UNL1     0.0600
     71 H         1.253514   -0.698249   1.749774 H        1 UNL1     0.0348
     72 H         3.174028   0.75466   2.114093 H        1 UNL1     0.0602
     73 H         2.154307   5.028107   -0.341343 H        1 UNL1     0.0628
     74 H         2.136575   5.126635   2.73284 H        1 UNL1     0.1022
     75 H         11.673937   -0.640202   -0.442807 H        1 UNL1     0.0279
     76 H         12.128812   0.443586   -1.696518 H        1 UNL1     0.0279
     77 H         12.875129   0.518843   -0.049507 H        1 UNL1     0.0279
     78 H         10.933304   2.134749   -2.52973 H        1 UNL1     0.1553
     79 H         9.285994   1.034033   -2.497791 H        1 UNL1     0.1484
     80 H         5.663997   1.305129   -3.614545 H        1 UNL1     0.0317
     81 H         6.844071   2.57644   -3.899359 H        1 UNL1     0.0317
     82 H         8.621127   0.887684   -4.432161 H        1 UNL1     0.0428
     83 H         7.210885   0.731576   -5.456149 H        1 UNL1     0.0428
     84 H         7.514432   -1.996078   -2.204856 H        1 UNL1     0.0428
     85 H         8.816558   -0.873962   -2.390457 H        1 UNL1     0.0428
     86 H         7.085624   -0.324588   -0.679636 H        1 UNL1     0.0317
     87 H         5.827762   -0.265132   -1.827067 H        1 UNL1     0.0317
     88 H         8.880748   -1.451152   -5.199499 H        1 UNL1     0.0429
     89 H         7.95353   -2.734476   -4.418742 H        1 UNL1     0.0429
     90 H         5.975111   -1.436283   -5.882757 H        1 UNL1     0.0308
     91 H         8.555079   -1.244323   -7.544756 H        1 UNL1     0.0233
     92 H         6.90166   -0.99702   -8.161636 H        1 UNL1     0.0233
     93 H         7.589194   0.124411   -7.00652 H        1 UNL1     0.0233
     94 H         6.313185   -3.282066   -7.566312 H        1 UNL1     0.0233
     95 H         7.755726   -3.746099   -6.650848 H        1 UNL1     0.0233
     96 H         6.156071   -3.79855   -5.874741 H        1 UNL1     0.0233
     97 H         6.483093   9.231395   0.794562 H        1 UNL1     0.0280
     98 H         8.206852   9.437672   0.947189 H        1 UNL1     0.0280
     99 H         7.433456   9.593439   -0.658216 H        1 UNL1     0.0280
     100 H         9.65191   8.589246   -1.349405 H        1 UNL1     0.2922
     101 H         4.001359   -0.022821   3.57738 H        1 UNL1     0.0236
     102 H         5.516171   0.880397   3.971847 H        1 UNL1     0.0236
     103 H         5.553993   -0.797837   3.527331 H        1 UNL1     0.0236
     104 H         3.594652   -1.435586   2.391481 H        1 UNL1     0.2098
     105 H         1.21334   0.999764   -0.734212 H        1 UNL1     0.0234
     106 H         1.364977   -0.776757   -0.62433 H        1 UNL1     0.0234
     107 H         0.0   -0.0   0.0 H        1 UNL1     0.0234
     108 H         1.479638   3.03097   1.938858 H        1 UNL1     0.2098
     109 H         1.973399   2.632578   -0.596042 H        1 UNL1     0.0234
     110 H         0.889372   2.142053   -1.936592 H        1 UNL1     0.0234
     111 H         1.539685   3.742873   -1.879043 H        1 UNL1     0.0234
     112 H         -4.106359   -0.510123   0.472825 H        1 UNL1     0.0342
     113 H         -3.523903   1.037045   1.18364 H        1 UNL1     0.0342
     114 H         -4.3658   1.028193   -0.368488 H        1 UNL1     0.0342
     115 H         -2.842883   2.785114   2.444816 H        1 UNL1     0.0234
     116 H         -1.674291   2.484353   3.735056 H        1 UNL1     0.0234
     117 H         -1.524669   3.847825   2.607136 H        1 UNL1     0.0234
     118 H         2.963439   7.163416   -0.653004 H        1 UNL1     0.0309
     119 H         4.495298   6.860979   -1.530501 H        1 UNL1     0.0309
     120 H         3.306442   5.598842   -1.294305 H        1 UNL1     0.0309
     121 H         0.506743   6.413019   2.486411 H        1 UNL1     0.0524
     122 H         -1.121368   6.545933   1.809326 H        1 UNL1     0.0524
     123 H         -0.890634   5.795249   3.408381 H        1 UNL1     0.0524
@<TRIPOS>BOND
     1     1     2    1
     2     1    42    1
     3     2     3    2
     4     3     4    1
     5     4     5    2
     6     5     7    1
     7     6    75    1
     8     6    76    1
     9     6    77    1
    10     7     9   am
    11     9    10    1
    12    10    11    2
    13    10    43    1
    14    11    14    1
    15    11    15    1
    16    12    13   ar
    17    12    27   ar
    18    12    43    1
    19    13    14    1
    20    13    30   ar
    21    14    17    2
    22    15    16    1
    23    16    17    1
    24    16    18    1
    25    16    22    1
    26    18    19    1
    27    19    20    1
    28    20    21    1
    29    21    22    1
    30    23    24    1
    31    23    88    1
    32    23    89    1
    33    24    25    1
    34    24    26    1
    35    24    90    1
    36    25    91    1
    37    25    92    1
    38    25    93    1
    39    26    94    1
    40    26    95    1
    41    26    96    1
    42    27    28   ar
    43    28    29   ar
    44    29    30   ar
    45    29    31    1
    46    30    33    1
    47    31    32    1
    48    32    33    1
    49    32    35    1
    50    34    97    1
    51    34    98    1
    52    34    99    1
    53    35    61    1
    54    36    37    1
    55    36    60    1
    56    37    38    1
    57    38    39    1
    58    39    40    1
    59    40    41    1
    60    41    42    1
    61    45   100    1
    62    47   101    1
    63    47   102    1
    64    47   103    1
    65    48   104    1
    66    49   105    1
    67    49   106    1
    68    49   107    1
    69    50   108    1
    70    51    59    1
    71    52   109    1
    72    52   110    1
    73    52   111    1
    74    53    54    1
    75    54    55    2
    76    54    56    1
    77    56   112    1
    78    56   113    1
    79    56   114    1
    80    57   115    1
    81    57   116    1
    82    57   117    1
    83    58   118    1
    84    58   119    1
    85    58   120    1
    86    59   121    1
    87    59   122    1
    88    59   123    1
    89    60    61    2
    90     1    47    1
    91     1    62    1
    92     2    63    1
    93     3    64    1
    94     4    65    1
    95     5     6    1
    96     7     8    2
    97     9    78    1
    98    15    79    1
    99    18    80    1
   100    18    81    1
   101    19    82    1
   102    19    83    1
   103    20    23    1
   104    21    84    1
   105    21    85    1
   106    22    86    1
   107    22    87    1
   108    27    45    1
   109    28    34    1
   110    32    58    1
   111    33    46    2
   112    36    51    1
   113    36    66    1
   114    37    52    1
   115    37    67    1
   116    38    53    1
   117    38    68    1
   118    42    48    1
   119    42    72    1
   120    43    44    2
   121    60    73    1
   122    61    74    1
   123    39    69    1
   124    39    57    1
   125    40    70    1
   126    40    50    1
   127    41    71    1
   128    41    49    1
