@<TRIPOS>MOLECULE
*****
 123 128 0 0 0
SMALL
GASTEIGER

@<TRIPOS>ATOM
     1 C         5.16701   1.748921   0.492494 C.3        1 UNL1     0.0009
     2 C         6.603701   2.555539   -0.357404 C.2        1 UNL1     -0.0787
     3 C         7.885633   2.457761   -1.023088 C.2        1 UNL1     -0.0649
     4 C         8.763046   3.693309   -1.778022 C.2        1 UNL1     -0.0542
     5 C         9.783117   3.986476   -2.716417 C.2        1 UNL1     0.0115
     6 C         10.91142   3.361526   -3.582265 C.3        1 UNL1     -0.0348
     7 C         9.878394   5.47003   -3.322206 C.2        1 UNL1     0.2441
     8 O         10.702193   6.291554   -2.944082 O.2        1 UNL1     -0.2702
     9 N         9.128239   5.677504   -4.492836 N.am        1 UNL1     -0.2772
     10 C         7.845475   6.063944   -4.178986 C.2        1 UNL1     0.1049
     11 C         6.999738   5.092332   -3.887576 C.2        1 UNL1     0.0801
     12 C         6.546871   7.669829   -2.76757 C.ar        1 UNL1     0.0753
     13 C         5.787862   6.541646   -2.320673 C.ar        1 UNL1     0.0305
     14 C         5.90493   5.236262   -2.966676 C.2        1 UNL1     0.0924
     15 N         7.122462   3.763439   -4.047292 N.pl3        1 UNL1     -0.3170
     16 C         5.852623   3.164029   -3.733491 C.3        1 UNL1     0.1275
     17 N         5.216088   4.11875   -2.753158 N.2        1 UNL1     -0.2557
     18 C         4.999859   3.223644   -4.997193 C.3        1 UNL1     0.0016
     19 C         5.754867   2.540145   -6.126078 C.3        1 UNL1     0.0026
     20 N         6.025079   1.161878   -5.740859 N.3        1 UNL1     -0.3018
     21 C         6.788361   1.000945   -4.501556 C.3        1 UNL1     0.0026
     22 C         6.009489   1.690874   -3.380285 C.3        1 UNL1     0.0016
     23 C         6.469721   0.342902   -6.850911 C.3        1 UNL1     0.0012
     24 C         5.314362   0.093814   -7.833182 C.3        1 UNL1     -0.0339
     25 C         5.339927   1.09755   -8.99762 C.3        1 UNL1     -0.0615
     26 C         5.353892   -1.340653   -8.330699 C.3        1 UNL1     -0.0615
     27 C         6.342084   8.937251   -2.227364 C.ar        1 UNL1     0.1347
     28 C         5.382941   9.206274   -1.267301 C.ar        1 UNL1     0.0342
     29 C         4.681427   8.071555   -0.807457 C.ar        1 UNL1     0.1435
     30 C         4.900995   6.789784   -1.313494 C.ar        1 UNL1     0.0774
     31 O         3.64037   8.184642   0.046017 O.3        1 UNL1     -0.4436
     32 C         2.918788   6.951839   -0.096778 C.3        1 UNL1     0.3143
     33 C         3.932191   5.959058   -0.629331 C.2        1 UNL1     0.2504
     34 C         4.935977   10.572137   -0.826006 C.3        1 UNL1     -0.0327
     35 O         2.558096   6.51449   1.219231 O.2        1 UNL1     -0.4528
     36 C         -0.684789   4.582265   0.821375 C.3        1 UNL1     0.0854
     37 C         -0.989949   3.322083   -0.07659 C.3        1 UNL1     0.0236
     38 C         -1.590466   2.060625   0.710714 C.3        1 UNL1     0.1131
     39 C         -0.864752   1.529129   2.011914 C.3        1 UNL1     0.0200
     40 C         0.796448   1.383681   2.053117 C.3        1 UNL1     0.0661
     41 C         1.755943   0.615467   0.884004 C.3        1 UNL1     0.0091
     42 C         3.46354   0.978409   0.320275 C.3        1 UNL1     0.0661
     43 C         7.496997   7.462719   -3.888563 C.2        1 UNL1     0.2131
     44 O         7.896861   8.361162   -4.606649 O.2        1 UNL1     -0.2851
     45 O         7.154307   9.972629   -2.685319 O.3        1 UNL1     -0.5056
     46 O         3.948255   4.755463   -0.499116 O.2        1 UNL1     -0.2836
     47 C         5.563316   1.3188   1.93052 C.3        1 UNL1     -0.0566
     48 O         3.912196   -0.432704   0.40143 O.3        1 UNL1     -0.3909
     49 C         0.921846   0.383397   -0.356126 C.3        1 UNL1     -0.0577
     50 O         1.396539   2.601402   2.446525 O.3        1 UNL1     -0.3910
     51 O         -0.808947   4.391935   2.212702 O.3        1 UNL1     -0.3753
     52 C         0.054585   3.162219   -1.229127 C.3        1 UNL1     -0.0564
     53 O         -2.192944   1.022018   -0.189642 O.3        1 UNL1     -0.4608
     54 C         -2.415181   -0.288143   0.14505 C.2        1 UNL1     0.3042
     55 O         -1.842917   -1.280884   -0.303077 O.2        1 UNL1     -0.2512
     56 C         -3.444608   -0.466822   1.224432 C.3        1 UNL1     0.0332
     57 C         -1.585899   2.197489   3.273428 C.3        1 UNL1     -0.0567
     58 C         1.843639   7.197359   -1.180892 C.3        1 UNL1     0.0210
     59 C         -1.153188   5.564209   2.949679 C.3        1 UNL1     0.0372
     60 C         0.644178   5.211545   0.591126 C.2        1 UNL1     -0.0208
     61 C         1.557034   5.646438   1.460784 C.2        1 UNL1     0.0882
     62 H         4.691019   2.733021   0.580188 H        1 UNL1     0.0365
     63 H         6.337377   3.609272   -0.251629 H        1 UNL1     0.0576
     64 H         8.343364   1.491044   -1.244555 H        1 UNL1     0.0615
     65 H         8.275883   4.608514   -1.430809 H        1 UNL1     0.0622
     66 H         -1.429472   5.328885   0.511454 H        1 UNL1     0.0645
     67 H         -1.855484   3.631671   -0.687789 H        1 UNL1     0.0362
     68 H         -2.537584   2.497277   1.062601 H        1 UNL1     0.0741
     69 H         -1.196218   0.51792   2.206834 H        1 UNL1     0.0359
     70 H         0.90822   0.722954   2.93403 H        1 UNL1     0.0600
     71 H         1.799571   -0.40589   1.31048 H        1 UNL1     0.0348
     72 H         3.357574   1.466158   1.300166 H        1 UNL1     0.0602
     73 H         0.762115   5.409276   -0.445331 H        1 UNL1     0.0628
     74 H         1.539446   5.435284   2.530523 H        1 UNL1     0.1022
     75 H         10.955966   2.256181   -3.429751 H        1 UNL1     0.0279
     76 H         10.797839   3.4448   -4.660798 H        1 UNL1     0.0279
     77 H         11.916458   3.666148   -3.255454 H        1 UNL1     0.0279
     78 H         9.066323   4.807791   -5.018043 H        1 UNL1     0.1553
     79 H         7.787793   3.335773   -4.664844 H        1 UNL1     0.1484
     80 H         4.0386   2.732559   -4.803331 H        1 UNL1     0.0317
     81 H         4.773197   4.260505   -5.267735 H        1 UNL1     0.0317
     82 H         6.685508   3.07162   -6.373774 H        1 UNL1     0.0428
     83 H         5.129757   2.595652   -7.017821 H        1 UNL1     0.0428
     84 H         6.908734   -0.04214   -4.192855 H        1 UNL1     0.0428
     85 H         7.818435   1.369092   -4.605155 H        1 UNL1     0.0428
     86 H         6.525882   1.440132   -2.47229 H        1 UNL1     0.0317
     87 H         5.030069   1.213117   -3.255462 H        1 UNL1     0.0317
     88 H         7.265776   0.884989   -7.377914 H        1 UNL1     0.0429
     89 H         6.90236   -0.603002   -6.500391 H        1 UNL1     0.0429
     90 H         4.361466   0.200218   -7.301316 H        1 UNL1     0.0308
     91 H         6.288877   1.052951   -9.540398 H        1 UNL1     0.0233
     92 H         4.519696   0.90371   -9.692786 H        1 UNL1     0.0233
     93 H         5.215489   2.133262   -8.659017 H        1 UNL1     0.0233
     94 H         4.657663   -1.469899   -9.166401 H        1 UNL1     0.0233
     95 H         6.358298   -1.5847   -8.687871 H        1 UNL1     0.0233
     96 H         5.079527   -2.044866   -7.540271 H        1 UNL1     0.0233
     97 H         4.142604   10.521971   -0.086227 H        1 UNL1     0.0280
     98 H         5.748666   11.142023   -0.356942 H        1 UNL1     0.0280
     99 H         4.562304   11.137037   -1.695691 H        1 UNL1     0.0280
     100 H         6.687238   10.723092   -3.008234 H        1 UNL1     0.2922
     101 H         4.700506   0.884876   2.435422 H        1 UNL1     0.0236
     102 H         6.014013   2.123915   2.509869 H        1 UNL1     0.0236
     103 H         6.319619   0.516182   1.929097 H        1 UNL1     0.0236
     104 H         4.331695   -0.559056   1.274943 H        1 UNL1     0.2098
     105 H         0.709167   1.282471   -0.929052 H        1 UNL1     0.0234
     106 H         1.291321   -0.404305   -1.012586 H        1 UNL1     0.0234
     107 H         0.0   -0.0   0.0 H        1 UNL1     0.0234
     108 H         1.197979   3.259951   1.753232 H        1 UNL1     0.2098
     109 H         1.07941   3.048643   -0.848933 H        1 UNL1     0.0234
     110 H         -0.177767   2.335407   -1.908934 H        1 UNL1     0.0234
     111 H         0.075749   4.045326   -1.881523 H        1 UNL1     0.0234
     112 H         -3.569897   -1.530882   1.446751 H        1 UNL1     0.0342
     113 H         -3.195966   0.093708   2.124336 H        1 UNL1     0.0342
     114 H         -4.404521   -0.085801   0.849526 H        1 UNL1     0.0342
     115 H         -2.650045   1.928966   3.325171 H        1 UNL1     0.0234
     116 H         -1.134386   1.936548   4.232643 H        1 UNL1     0.0234
     117 H         -1.64644   3.297807   3.213613 H        1 UNL1     0.0234
     118 H         0.942512   7.684018   -0.768414 H        1 UNL1     0.0309
     119 H         2.213009   7.785745   -2.026806 H        1 UNL1     0.0309
     120 H         1.455154   6.265562   -1.606263 H        1 UNL1     0.0309
     121 H         -0.349   6.286882   2.814098 H        1 UNL1     0.0524
     122 H         -2.083363   6.030157   2.584023 H        1 UNL1     0.0524
     123 H         -1.268907   5.325437   4.003098 H        1 UNL1     0.0524
@<TRIPOS>BOND
     1     1     2    1
     2     1    42    1
     3     2     3    2
     4     3     4    1
     5     4     5    2
     6     5     7    1
     7     6    75    1
     8     6    76    1
     9     6    77    1
    10     7     9   am
    11     9    10    1
    12    10    11    2
    13    10    43    1
    14    11    14    1
    15    11    15    1
    16    12    13   ar
    17    12    27   ar
    18    12    43    1
    19    13    14    1
    20    13    30   ar
    21    14    17    2
    22    15    16    1
    23    16    17    1
    24    16    18    1
    25    16    22    1
    26    18    19    1
    27    19    20    1
    28    20    21    1
    29    21    22    1
    30    23    24    1
    31    23    88    1
    32    23    89    1
    33    24    25    1
    34    24    26    1
    35    24    90    1
    36    25    91    1
    37    25    92    1
    38    25    93    1
    39    26    94    1
    40    26    95    1
    41    26    96    1
    42    27    28   ar
    43    28    29   ar
    44    29    30   ar
    45    29    31    1
    46    30    33    1
    47    31    32    1
    48    32    33    1
    49    32    35    1
    50    34    97    1
    51    34    98    1
    52    34    99    1
    53    35    61    1
    54    36    37    1
    55    36    60    1
    56    37    38    1
    57    38    39    1
    58    39    40    1
    59    40    41    1
    60    41    42    1
    61    45   100    1
    62    47   101    1
    63    47   102    1
    64    47   103    1
    65    48   104    1
    66    49   105    1
    67    49   106    1
    68    49   107    1
    69    50   108    1
    70    51    59    1
    71    52   109    1
    72    52   110    1
    73    52   111    1
    74    53    54    1
    75    54    55    2
    76    54    56    1
    77    56   112    1
    78    56   113    1
    79    56   114    1
    80    57   115    1
    81    57   116    1
    82    57   117    1
    83    58   118    1
    84    58   119    1
    85    58   120    1
    86    59   121    1
    87    59   122    1
    88    59   123    1
    89    60    61    2
    90     1    47    1
    91     1    62    1
    92     2    63    1
    93     3    64    1
    94     4    65    1
    95     5     6    1
    96     7     8    2
    97     9    78    1
    98    15    79    1
    99    18    80    1
   100    18    81    1
   101    19    82    1
   102    19    83    1
   103    20    23    1
   104    21    84    1
   105    21    85    1
   106    22    86    1
   107    22    87    1
   108    27    45    1
   109    28    34    1
   110    32    58    1
   111    33    46    2
   112    36    51    1
   113    36    66    1
   114    37    52    1
   115    37    67    1
   116    38    53    1
   117    38    68    1
   118    42    48    1
   119    42    72    1
   120    43    44    2
   121    60    73    1
   122    61    74    1
   123    39    69    1
   124    39    57    1
   125    40    70    1
   126    40    50    1
   127    41    71    1
   128    41    49    1
