@<TRIPOS>MOLECULE
*****
 123 128 0 0 0
SMALL
GASTEIGER

@<TRIPOS>ATOM
     1 C         5.155066   1.774477   0.525166 C.3        1 UNL1     0.0009
     2 C         6.592346   2.590199   -0.314989 C.2        1 UNL1     -0.0787
     3 C         7.878498   2.50037   -0.973617 C.2        1 UNL1     -0.0649
     4 C         8.753771   3.741945   -1.72111 C.2        1 UNL1     -0.0542
     5 C         9.777591   4.04226   -2.653141 C.2        1 UNL1     0.0115
     6 C         10.913964   3.424882   -3.513851 C.3        1 UNL1     -0.0348
     7 C         9.86863   5.52751   -3.255413 C.2        1 UNL1     0.2441
     8 O         10.686038   6.352493   -2.870999 O.2        1 UNL1     -0.2702
     9 N         9.124027   5.733498   -4.429843 N.am        1 UNL1     -0.2772
     10 C         7.837538   6.112696   -4.12247 C.2        1 UNL1     0.1049
     11 C         6.995192   5.136156   -3.837786 C.2        1 UNL1     0.0801
     12 C         6.522735   7.70901   -2.715201 C.ar        1 UNL1     0.0753
     13 C         5.767046   6.576033   -2.274856 C.ar        1 UNL1     0.0305
     14 C         5.894483   5.272583   -2.922798 C.2        1 UNL1     0.0924
     15 N         7.125666   3.808239   -3.999465 N.pl3        1 UNL1     -0.3170
     16 C         5.857186   3.201669   -3.69404 C.3        1 UNL1     0.1275
     17 N         5.210219   4.15111   -2.715409 N.2        1 UNL1     -0.2557
     18 C         5.011263   3.25946   -4.962416 C.3        1 UNL1     0.0016
     19 C         5.776137   2.582146   -6.088384 C.3        1 UNL1     0.0026
     20 N         6.051276   1.204509   -5.704403 N.3        1 UNL1     -0.3018
     21 C         6.808379   1.04499   -4.461134 C.3        1 UNL1     0.0026
     22 C         6.019651   1.728626   -3.342901 C.3        1 UNL1     0.0016
     23 C         6.506385   0.390086   -6.813563 C.3        1 UNL1     0.0012
     24 C         5.357881   0.137052   -7.80284 C.3        1 UNL1     -0.0339
     25 C         5.384835   1.143267   -8.965105 C.3        1 UNL1     -0.0615
     26 C         5.407611   -1.29618   -8.302994 C.3        1 UNL1     -0.0615
     27 C         6.308374   8.974263   -2.173626 C.ar        1 UNL1     0.1347
     28 C         5.342459   9.236399   -1.218459 C.ar        1 UNL1     0.0342
     29 C         4.644225   8.097155   -0.764855 C.ar        1 UNL1     0.1435
     30 C         4.873248   6.81756   -1.272208 C.ar        1 UNL1     0.0774
     31 O         3.597803   8.203152   0.08295 O.3        1 UNL1     -0.4436
     32 C         2.883404   6.966946   -0.066384 C.3        1 UNL1     0.3143
     33 C         3.904898   5.980474   -0.59519 C.2        1 UNL1     0.2504
     34 C         4.885978   10.599046   -0.776964 C.3        1 UNL1     -0.0327
     35 O         2.517559   6.525077   1.246689 O.2        1 UNL1     -0.4528
     36 C         -0.713026   4.577005   0.82666 C.3        1 UNL1     0.0854
     37 C         -1.006617   3.317095   -0.075534 C.3        1 UNL1     0.0236
     38 C         -1.605051   2.050969   0.705841 C.3        1 UNL1     0.1131
     39 C         -0.883953   1.520573   2.010053 C.3        1 UNL1     0.0200
     40 C         0.777716   1.38359   2.060347 C.3        1 UNL1     0.0661
     41 C         1.747735   0.622698   0.895136 C.3        1 UNL1     0.0091
     42 C         3.456589   0.995562   0.341788 C.3        1 UNL1     0.0661
     43 C         7.480221   7.509067   -3.831223 C.2        1 UNL1     0.2131
     44 O         7.87949   8.411011   -4.545239 O.2        1 UNL1     -0.2851
     45 O         7.117817   10.014734   -2.624914 O.3        1 UNL1     -0.5056
     46 O         3.926434   4.776716   -0.467294 O.2        1 UNL1     -0.2836
     47 C         5.54547   1.343483   1.964544 C.3        1 UNL1     -0.0566
     48 O         3.91205   -0.413385   0.422652 O.3        1 UNL1     -0.3909
     49 C         0.92185   0.388857   -0.350146 C.3        1 UNL1     -0.0577
     50 O         1.369293   2.603581   2.459573 O.3        1 UNL1     -0.3910
     51 O         -0.844042   4.383215   2.21688 O.3        1 UNL1     -0.3753
     52 C         0.045208   3.164946   -1.222471 C.3        1 UNL1     -0.0564
     53 O         -2.197081   1.011106   -0.199979 O.3        1 UNL1     -0.4608
     54 C         -2.414051   -0.300958   0.13069 C.2        1 UNL1     0.3042
     55 O         -1.833921   -1.289615   -0.316351 O.2        1 UNL1     -0.2512
     56 C         -3.448472   -0.487539   1.203944 C.3        1 UNL1     0.0332
     57 C         -1.615637   2.182653   3.268808 C.3        1 UNL1     -0.0567
     58 C         1.813132   7.20913   -1.15606 C.3        1 UNL1     0.0210
     59 C         -1.198472   5.552205   2.954245 C.3        1 UNL1     0.0372
     60 C         0.613956   5.21358   0.605179 C.2        1 UNL1     -0.0208
     61 C         1.51964   5.651398   1.480848 C.2        1 UNL1     0.0882
     62 H         4.67352   2.755936   0.612139 H        1 UNL1     0.0365
     63 H         6.320001   3.642331   -0.208612 H        1 UNL1     0.0576
     64 H         8.342449   1.536472   -1.194429 H        1 UNL1     0.0615
     65 H         8.259946   4.653924   -1.374824 H        1 UNL1     0.0622
     66 H         -1.459789   5.320412   0.514032 H        1 UNL1     0.0645
     67 H         -1.870278   3.623466   -0.69099 H        1 UNL1     0.0362
     68 H         -2.556377   2.482027   1.053246 H        1 UNL1     0.0741
     69 H         -1.211294   0.507279   2.201075 H        1 UNL1     0.0359
     70 H         0.887925   0.72166   2.940553 H        1 UNL1     0.0600
     71 H         1.794223   -0.399286   1.319808 H        1 UNL1     0.0348
     72 H         3.342586   1.480771   1.322039 H        1 UNL1     0.0602
     73 H         0.736713   5.414018   -0.430197 H        1 UNL1     0.0628
     74 H         1.497111   5.437985   2.550046 H        1 UNL1     0.1022
     75 H         10.963348   2.319472   -3.363299 H        1 UNL1     0.0279
     76 H         10.806037   3.509759   -4.59284 H        1 UNL1     0.0279
     77 H         11.915559   3.734006   -3.18076 H        1 UNL1     0.0279
     78 H         9.069558   4.864545   -4.95713 H        1 UNL1     0.1553
     79 H         7.796664   3.385256   -4.614103 H        1 UNL1     0.1484
     80 H         4.051471   2.763043   -4.774969 H        1 UNL1     0.0317
     81 H         4.780786   4.295688   -5.23216 H        1 UNL1     0.0317
     82 H         6.705407   3.118905   -6.329757 H        1 UNL1     0.0428
     83 H         5.155786   2.636247   -6.983531 H        1 UNL1     0.0428
     84 H         6.932386   0.001914   -4.153845 H        1 UNL1     0.0428
     85 H         7.837108   1.418641   -4.558176 H        1 UNL1     0.0428
     86 H         6.532203   1.478702   -2.432508 H        1 UNL1     0.0317
     87 H         5.042019   1.245584   -3.224568 H        1 UNL1     0.0317
     88 H         7.302592   0.937331   -7.334976 H        1 UNL1     0.0429
     89 H         6.941913   -0.554289   -6.462498 H        1 UNL1     0.0429
     90 H         4.401467   0.237473   -7.276152 H        1 UNL1     0.0308
     91 H         6.338211   1.106834   -9.500688 H        1 UNL1     0.0233
     92 H         4.571412   0.944695   -9.666903 H        1 UNL1     0.0233
     93 H         5.250071   2.177345   -8.625462 H        1 UNL1     0.0233
     94 H         4.71678   -1.42731   -9.142872 H        1 UNL1     0.0233
     95 H         6.41526   -1.534331   -8.654975 H        1 UNL1     0.0233
     96 H         5.13243   -2.003398   -7.515539 H        1 UNL1     0.0233
     97 H         4.088717   10.543298   -0.04178 H        1 UNL1     0.0280
     98 H         5.693062   11.172152   -0.302178 H        1 UNL1     0.0280
     99 H         4.514307   11.16378   -1.647614 H        1 UNL1     0.0280
     100 H         6.648712   10.763438   -2.94896 H        1 UNL1     0.2922
     101 H         4.682077   0.904102   2.463696 H        1 UNL1     0.0236
     102 H         5.988738   2.149729   2.548038 H        1 UNL1     0.0236
     103 H         6.305898   0.544771   1.965787 H        1 UNL1     0.0236
     104 H         4.327264   -0.53935   1.298266 H        1 UNL1     0.2098
     105 H         0.707771   1.287986   -0.922464 H        1 UNL1     0.0234
     106 H         1.299076   -0.3956   -1.006084 H        1 UNL1     0.0234
     107 H         0.0   -0.0   0.0 H        1 UNL1     0.0234
     108 H         1.171252   3.262506   1.766488 H        1 UNL1     0.2098
     109 H         1.068445   3.055873   -0.836722 H        1 UNL1     0.0234
     110 H         -0.179042   2.338331   -1.905232 H        1 UNL1     0.0234
     111 H         0.065495   4.049473   -1.872969 H        1 UNL1     0.0234
     112 H         -3.56921   -1.552738   1.423303 H        1 UNL1     0.0342
     113 H         -3.207882   0.072393   2.106405 H        1 UNL1     0.0342
     114 H         -4.408344   -0.110922   0.824509 H        1 UNL1     0.0342
     115 H         -2.678659   1.908554   3.314004 H        1 UNL1     0.0234
     116 H         -1.168198   1.922092   4.230035 H        1 UNL1     0.0234
     117 H         -1.681512   3.282764   3.210854 H        1 UNL1     0.0234
     118 H         0.907197   7.690309   -0.747705 H        1 UNL1     0.0309
     119 H         2.184226   7.801125   -1.998695 H        1 UNL1     0.0309
     120 H         1.431861   6.276213   -1.585481 H        1 UNL1     0.0309
     121 H         -0.397269   6.279279   2.824653 H        1 UNL1     0.0524
     122 H         -2.128961   6.014102   2.584274 H        1 UNL1     0.0524
     123 H         -1.318895   5.310702   4.006514 H        1 UNL1     0.0524
@<TRIPOS>BOND
     1     1     2    1
     2     1    42    1
     3     2     3    2
     4     3     4    1
     5     4     5    2
     6     5     7    1
     7     6    75    1
     8     6    76    1
     9     6    77    1
    10     7     9   am
    11     9    10    1
    12    10    11    2
    13    10    43    1
    14    11    14    1
    15    11    15    1
    16    12    13   ar
    17    12    27   ar
    18    12    43    1
    19    13    14    1
    20    13    30   ar
    21    14    17    2
    22    15    16    1
    23    16    17    1
    24    16    18    1
    25    16    22    1
    26    18    19    1
    27    19    20    1
    28    20    21    1
    29    21    22    1
    30    23    24    1
    31    23    88    1
    32    23    89    1
    33    24    25    1
    34    24    26    1
    35    24    90    1
    36    25    91    1
    37    25    92    1
    38    25    93    1
    39    26    94    1
    40    26    95    1
    41    26    96    1
    42    27    28   ar
    43    28    29   ar
    44    29    30   ar
    45    29    31    1
    46    30    33    1
    47    31    32    1
    48    32    33    1
    49    32    35    1
    50    34    97    1
    51    34    98    1
    52    34    99    1
    53    35    61    1
    54    36    37    1
    55    36    60    1
    56    37    38    1
    57    38    39    1
    58    39    40    1
    59    40    41    1
    60    41    42    1
    61    45   100    1
    62    47   101    1
    63    47   102    1
    64    47   103    1
    65    48   104    1
    66    49   105    1
    67    49   106    1
    68    49   107    1
    69    50   108    1
    70    51    59    1
    71    52   109    1
    72    52   110    1
    73    52   111    1
    74    53    54    1
    75    54    55    2
    76    54    56    1
    77    56   112    1
    78    56   113    1
    79    56   114    1
    80    57   115    1
    81    57   116    1
    82    57   117    1
    83    58   118    1
    84    58   119    1
    85    58   120    1
    86    59   121    1
    87    59   122    1
    88    59   123    1
    89    60    61    2
    90     1    47    1
    91     1    62    1
    92     2    63    1
    93     3    64    1
    94     4    65    1
    95     5     6    1
    96     7     8    2
    97     9    78    1
    98    15    79    1
    99    18    80    1
   100    18    81    1
   101    19    82    1
   102    19    83    1
   103    20    23    1
   104    21    84    1
   105    21    85    1
   106    22    86    1
   107    22    87    1
   108    27    45    1
   109    28    34    1
   110    32    58    1
   111    33    46    2
   112    36    51    1
   113    36    66    1
   114    37    52    1
   115    37    67    1
   116    38    53    1
   117    38    68    1
   118    42    48    1
   119    42    72    1
   120    43    44    2
   121    60    73    1
   122    61    74    1
   123    39    69    1
   124    39    57    1
   125    40    70    1
   126    40    50    1
   127    41    71    1
   128    41    49    1
