@<TRIPOS>MOLECULE
*****
 123 128 0 0 0
SMALL
GASTEIGER

@<TRIPOS>ATOM
     1 C         -4.342761   -1.182046   2.758732 C.3        1 UNL1     0.0009
     2 C         -5.772546   -0.483252   3.709751 C.2        1 UNL1     -0.0787
     3 C         -6.339313   -0.000278   4.951346 C.2        1 UNL1     -0.0649
     4 C         -7.859067   0.704279   5.196914 C.2        1 UNL1     -0.0542
     5 C         -8.637187   1.515123   6.059549 C.2        1 UNL1     0.0115
     6 C         -8.67368   2.184973   7.460724 C.3        1 UNL1     -0.0348
     7 C         -9.977962   2.190542   5.49111 C.2        1 UNL1     0.2441
     8 O         -11.095834   1.756421   5.732826 O.2        1 UNL1     -0.2702
     9 N         -9.799316   3.460509   4.915419 N.am        1 UNL1     -0.2772
     10 C         -9.487178   3.343   3.580472 C.2        1 UNL1     0.1049
     11 C         -8.21856   3.108627   3.297805 C.2        1 UNL1     0.0801
     12 C         -10.206531   2.214566   1.467062 C.ar        1 UNL1     0.0753
     13 C         -8.843505   1.805511   1.313953 C.ar        1 UNL1     0.0305
     14 C         -7.781647   2.35112   2.156461 C.2        1 UNL1     0.0924
     15 N         -7.132031   3.170957   4.086537 N.pl3        1 UNL1     -0.3170
     16 C         -5.973002   2.992855   3.252759 C.3        1 UNL1     0.1275
     17 N         -6.46641   2.16431   2.091818 N.2        1 UNL1     -0.2557
     18 C         -5.616381   4.359659   2.676244 C.3        1 UNL1     0.0016
     19 C         -5.419226   5.335699   3.825185 C.3        1 UNL1     0.0026
     20 N         -4.355761   4.836392   4.685861 N.3        1 UNL1     -0.3018
     21 C         -4.580253   3.499524   5.239717 C.3        1 UNL1     0.0026
     22 C         -4.771142   2.534562   4.068263 C.3        1 UNL1     0.0016
     23 C         -3.88572   5.826811   5.633899 C.3        1 UNL1     0.0012
     24 C         -4.787346   5.851889   6.878165 C.3        1 UNL1     -0.0339
     25 C         -4.57012   4.607848   7.755223 C.3        1 UNL1     -0.0615
     26 C         -4.560028   7.133851   7.660264 C.3        1 UNL1     -0.0615
     27 C         -11.193181   1.78298   0.583674 C.ar        1 UNL1     0.1347
     28 C         -10.931873   0.976234   -0.509454 C.ar        1 UNL1     0.0342
     29 C         -9.591776   0.546362   -0.611996 C.ar        1 UNL1     0.1435
     30 C         -8.599601   0.941326   0.286231 C.ar        1 UNL1     0.0774
     31 O         -9.156059   -0.153398   -1.682273 O.3        1 UNL1     -0.4436
     32 C         -7.72988   0.009767   -1.666097 C.3        1 UNL1     0.3143
     33 C         -7.385564   0.343093   -0.228546 C.2        1 UNL1     0.2504
     34 C         -11.88398   0.680472   -1.634673 C.3        1 UNL1     -0.0327
     35 O         -7.151422   -1.270639   -1.94752 O.2        1 UNL1     -0.4528
     36 C         -3.861645   -0.562967   -3.703839 C.3        1 UNL1     0.0854
     37 C         -2.631294   0.290559   -3.208609 C.3        1 UNL1     0.0236
     38 C         -1.227223   -0.484251   -3.209079 C.3        1 UNL1     0.1131
     39 C         -1.111239   -1.899534   -2.512091 C.3        1 UNL1     0.0200
     40 C         -1.816168   -2.169029   -1.024515 C.3        1 UNL1     0.0661
     41 C         -1.648622   -1.185337   0.347305 C.3        1 UNL1     0.0091
     42 C         -2.825738   -0.832078   1.709292 C.3        1 UNL1     0.0661
     43 C         -10.519284   3.18543   2.544962 C.2        1 UNL1     0.2131
     44 O         -11.50768   3.896633   2.544227 O.2        1 UNL1     -0.2851
     45 O         -12.502671   2.190381   0.830045 O.3        1 UNL1     -0.5056
     46 O         -6.349846   0.140186   0.364726 O.2        1 UNL1     -0.2836
     47 C         -4.147645   -2.683011   3.103718 C.3        1 UNL1     -0.0566
     48 O         -1.827626   -1.056148   2.782923 O.3        1 UNL1     -0.3909
     49 C         -1.048512   0.138237   -0.07164 C.3        1 UNL1     -0.0577
     50 O         -3.1648   -2.564957   -1.173365 O.3        1 UNL1     -0.3910
     51 O         -3.614288   -1.934456   -3.916588 O.3        1 UNL1     -0.3753
     52 C         -3.03266   1.282951   -2.068866 C.3        1 UNL1     -0.0564
     53 O         -0.039895   0.424267   -3.078025 O.3        1 UNL1     -0.4608
     54 C         1.241848   0.116688   -3.452803 C.2        1 UNL1     0.3042
     55 O         2.119995   -0.395743   -2.759902 O.2        1 UNL1     -0.2512
     56 C         1.532692   0.409316   -4.897273 C.3        1 UNL1     0.0332
     57 C         -1.310286   -3.012184   -3.643711 C.3        1 UNL1     -0.0567
     58 C         -7.420233   1.239459   -2.551255 C.3        1 UNL1     0.0210
     59 C         -2.628158   -2.21896   -4.907785 C.3        1 UNL1     0.0372
     60 C         -5.074895   -0.473576   -2.846405 C.2        1 UNL1     -0.0208
     61 C         -5.89544   -1.428919   -2.407349 C.2        1 UNL1     0.0882
     62 H         -4.955082   -1.146936   1.849589 H        1 UNL1     0.0365
     63 H         -6.549816   -0.48964   2.942756 H        1 UNL1     0.0576
     64 H         -5.734867   0.100423   5.855566 H        1 UNL1     0.0615
     65 H         -8.402343   0.479987   4.274944 H        1 UNL1     0.0622
     66 H         -4.139769   -0.113069   -4.667314 H        1 UNL1     0.0645
     67 H         -2.475063   1.02842   -4.014656 H        1 UNL1     0.0362
     68 H         -1.125981   -0.680849   -4.287328 H        1 UNL1     0.0741
     69 H         -0.067159   -2.108925   -2.321143 H        1 UNL1     0.0359
     70 H         -1.287222   -3.094891   -0.727772 H        1 UNL1     0.0600
     71 H         -0.780088   -1.674116   0.83073 H        1 UNL1     0.0348
     72 H         -3.180489   -1.758377   1.234489 H        1 UNL1     0.0602
     73 H         -5.320326   0.548077   -2.693961 H        1 UNL1     0.0628
     74 H         -5.688125   -2.497595   -2.472079 H        1 UNL1     0.1022
     75 H         -9.321861   3.094155   7.443826 H        1 UNL1     0.0279
     76 H         -9.111289   1.60024   8.266736 H        1 UNL1     0.0279
     77 H         -7.70422   2.615256   7.751764 H        1 UNL1     0.0279
     78 H         -9.02322   3.936355   5.370746 H        1 UNL1     0.1553
     79 H         -7.103924   3.668263   4.957645 H        1 UNL1     0.1484
     80 H         -4.707327   4.265825   2.069958 H        1 UNL1     0.0317
     81 H         -6.404432   4.719332   2.005974 H        1 UNL1     0.0317
     82 H         -6.348709   5.489267   4.39298 H        1 UNL1     0.0428
     83 H         -5.16752   6.304094   3.391704 H        1 UNL1     0.0428
     84 H         -3.733056   3.115805   5.816629 H        1 UNL1     0.0428
     85 H         -5.416005   3.48759   5.952945 H        1 UNL1     0.0428
     86 H         -4.799199   1.552818   4.503441 H        1 UNL1     0.0317
     87 H         -3.865551   2.512236   3.449795 H        1 UNL1     0.0317
     88 H         -2.870097   5.547952   5.943808 H        1 UNL1     0.0429
     89 H         -3.819745   6.820601   5.172595 H        1 UNL1     0.0429
     90 H         -5.836625   5.876608   6.560965 H        1 UNL1     0.0308
     91 H         -5.398518   4.465431   8.455635 H        1 UNL1     0.0233
     92 H         -4.465134   3.713052   7.137221 H        1 UNL1     0.0233
     93 H         -3.654314   4.674433   8.354973 H        1 UNL1     0.0233
     94 H         -5.51793   7.618776   7.877305 H        1 UNL1     0.0233
     95 H         -4.072575   6.908833   8.613007 H        1 UNL1     0.0233
     96 H         -3.935629   7.836716   7.101627 H        1 UNL1     0.0233
     97 H         -12.175507   -0.36534   -1.65749 H        1 UNL1     0.0280
     98 H         -12.817882   1.250953   -1.547304 H        1 UNL1     0.0280
     99 H         -11.406097   0.927065   -2.596918 H        1 UNL1     0.0280
     100 H         -13.156488   1.538867   0.646539 H        1 UNL1     0.2922
     101 H         -4.84984   -2.975158   3.884249 H        1 UNL1     0.0236
     102 H         -3.119637   -2.932894   3.363988 H        1 UNL1     0.0236
     103 H         -4.388856   -3.338796   2.250515 H        1 UNL1     0.0236
     104 H         -1.27457   -0.252787   2.843834 H        1 UNL1     0.2098
     105 H         -1.276417   0.431357   -1.093379 H        1 UNL1     0.0234
     106 H         -1.24604   0.964331   0.611353 H        1 UNL1     0.0234
     107 H         0.0   0.0   0.0 H        1 UNL1     0.0234
     108 H         -3.669981   -1.776036   -1.449343 H        1 UNL1     0.2098
     109 H         -2.925579   0.835485   -1.070858 H        1 UNL1     0.0234
     110 H         -2.481208   2.228544   -2.107546 H        1 UNL1     0.0234
     111 H         -4.085423   1.585326   -2.147638 H        1 UNL1     0.0234
     112 H         0.902065   -0.214769   -5.53772 H        1 UNL1     0.0342
     113 H         1.407288   1.46467   -5.134642 H        1 UNL1     0.0342
     114 H         2.580484   0.14553   -5.096556 H        1 UNL1     0.0342
     115 H         -2.016668   -2.684529   -4.418859 H        1 UNL1     0.0234
     116 H         -0.38587   -3.305999   -4.144888 H        1 UNL1     0.0234
     117 H         -1.805264   -3.928173   -3.277785 H        1 UNL1     0.0234
     118 H         -6.336079   1.434936   -2.624775 H        1 UNL1     0.0309
     119 H         -7.838909   1.159445   -3.559477 H        1 UNL1     0.0309
     120 H         -7.816785   2.170286   -2.131238 H        1 UNL1     0.0309
     121 H         -2.465796   -3.296448   -4.911575 H        1 UNL1     0.0524
     122 H         -2.956468   -1.929156   -5.919844 H        1 UNL1     0.0524
     123 H         -1.701801   -1.701122   -4.675837 H        1 UNL1     0.0524
@<TRIPOS>BOND
     1     1     2    1
     2     1    42    1
     3     2     3    2
     4     3     4    1
     5     4     5    2
     6     5     7    1
     7     6    75    1
     8     6    76    1
     9     6    77    1
    10     7     9   am
    11     9    10    1
    12    10    11    2
    13    10    43    1
    14    11    14    1
    15    11    15    1
    16    12    13   ar
    17    12    27   ar
    18    12    43    1
    19    13    14    1
    20    13    30   ar
    21    14    17    2
    22    15    16    1
    23    16    17    1
    24    16    18    1
    25    16    22    1
    26    18    19    1
    27    19    20    1
    28    20    21    1
    29    21    22    1
    30    23    24    1
    31    23    88    1
    32    23    89    1
    33    24    25    1
    34    24    26    1
    35    24    90    1
    36    25    91    1
    37    25    92    1
    38    25    93    1
    39    26    94    1
    40    26    95    1
    41    26    96    1
    42    27    28   ar
    43    28    29   ar
    44    29    30   ar
    45    29    31    1
    46    30    33    1
    47    31    32    1
    48    32    33    1
    49    32    35    1
    50    34    97    1
    51    34    98    1
    52    34    99    1
    53    35    61    1
    54    36    37    1
    55    36    60    1
    56    37    38    1
    57    38    39    1
    58    39    40    1
    59    40    41    1
    60    41    42    1
    61    45   100    1
    62    47   101    1
    63    47   102    1
    64    47   103    1
    65    48   104    1
    66    49   105    1
    67    49   106    1
    68    49   107    1
    69    50   108    1
    70    51    59    1
    71    52   109    1
    72    52   110    1
    73    52   111    1
    74    53    54    1
    75    54    55    2
    76    54    56    1
    77    56   112    1
    78    56   113    1
    79    56   114    1
    80    57   115    1
    81    57   116    1
    82    57   117    1
    83    58   118    1
    84    58   119    1
    85    58   120    1
    86    59   121    1
    87    59   122    1
    88    59   123    1
    89    60    61    2
    90     1    47    1
    91     1    62    1
    92     2    63    1
    93     3    64    1
    94     4    65    1
    95     5     6    1
    96     7     8    2
    97     9    78    1
    98    15    79    1
    99    18    80    1
   100    18    81    1
   101    19    82    1
   102    19    83    1
   103    20    23    1
   104    21    84    1
   105    21    85    1
   106    22    86    1
   107    22    87    1
   108    27    45    1
   109    28    34    1
   110    32    58    1
   111    33    46    2
   112    36    51    1
   113    36    66    1
   114    37    52    1
   115    37    67    1
   116    38    53    1
   117    38    68    1
   118    42    48    1
   119    42    72    1
   120    43    44    2
   121    60    73    1
   122    61    74    1
   123    39    69    1
   124    39    57    1
   125    40    70    1
   126    40    50    1
   127    41    71    1
   128    41    49    1
