@<TRIPOS>MOLECULE
*****
 123 128 0 0 0
SMALL
GASTEIGER

@<TRIPOS>ATOM
     1 C         2.634637   -3.530915   -2.868271 C.3        1 UNL1     0.0009
     2 C         2.369982   -4.701848   -4.281038 C.2        1 UNL1     -0.0787
     3 C         2.299863   -6.053003   -4.796314 C.2        1 UNL1     -0.0649
     4 C         1.849761   -6.552022   -6.350259 C.2        1 UNL1     -0.0542
     5 C         1.386031   -7.638793   -7.131899 C.2        1 UNL1     0.0115
     6 C         1.124404   -9.170076   -7.125201 C.3        1 UNL1     -0.0348
     7 C         0.726685   -7.339677   -8.564653 C.2        1 UNL1     0.2441
     8 O         1.324022   -7.504264   -9.619463 O.2        1 UNL1     -0.2702
     9 N         -0.66264   -7.126706   -8.540736 N.am        1 UNL1     -0.2772
     10 C         -0.940967   -5.797813   -8.317358 C.2        1 UNL1     0.1049
     11 C         -0.924862   -5.403643   -7.056964 C.2        1 UNL1     0.0801
     12 C         -0.352396   -3.491413   -9.08641 C.ar        1 UNL1     0.0753
     13 C         -0.144098   -3.169449   -7.70744 C.ar        1 UNL1     0.0305
     14 C         -0.551375   -4.079482   -6.639256 C.2        1 UNL1     0.0924
     15 N         -0.886342   -6.128364   -5.925671 N.pl3        1 UNL1     -0.3170
     16 C         -1.060582   -5.225289   -4.819167 C.3        1 UNL1     0.1275
     17 N         -0.527174   -3.905636   -5.320879 N.2        1 UNL1     -0.2557
     18 C         -2.561448   -5.02989   -4.627015 C.3        1 UNL1     0.0016
     19 C         -3.208386   -6.392094   -4.433466 C.3        1 UNL1     0.0026
     20 N         -2.610303   -7.032976   -3.270455 N.3        1 UNL1     -0.3018
     21 C         -1.157985   -7.208738   -3.335622 C.3        1 UNL1     0.0026
     22 C         -0.528352   -5.827658   -3.525556 C.3        1 UNL1     0.0016
     23 C         -3.353425   -8.193584   -2.821674 C.3        1 UNL1     0.0012
     24 C         -4.724018   -8.256332   -3.513983 C.3        1 UNL1     -0.0339
     25 C         -4.9999   -9.655219   -4.089362 C.3        1 UNL1     -0.0615
     26 C         -5.814777   -7.823374   -2.54984 C.3        1 UNL1     -0.0615
     27 C         -0.073136   -2.569919   -10.092879 C.ar        1 UNL1     0.1347
     28 C         0.378782   -1.286651   -9.841793 C.ar        1 UNL1     0.0342
     29 C         0.62298   -1.008607   -8.480095 C.ar        1 UNL1     0.1435
     30 C         0.382196   -1.934059   -7.463836 C.ar        1 UNL1     0.0774
     31 O         0.960364   0.2314   -8.063488 O.3        1 UNL1     -0.4436
     32 C         0.659519   0.236752   -6.659801 C.3        1 UNL1     0.3143
     33 C         0.690157   -1.219669   -6.242536 C.2        1 UNL1     0.2504
     34 C         0.459464   -0.168515   -10.843473 C.3        1 UNL1     -0.0327
     35 O         1.749752   0.8848   -5.992959 O.2        1 UNL1     -0.4528
     36 C         0.257166   2.529204   -2.914613 C.3        1 UNL1     0.0854
     37 C         -0.55578   1.876075   -1.73137 C.3        1 UNL1     0.0236
     38 C         0.039457   2.153603   -0.268354 C.3        1 UNL1     0.1131
     39 C         1.569727   1.877523   0.022035 C.3        1 UNL1     0.0200
     40 C         2.300644   0.490064   -0.54643 C.3        1 UNL1     0.0661
     41 C         1.709285   -1.089691   -0.366766 C.3        1 UNL1     0.0091
     42 C         1.859435   -2.54901   -1.468241 C.3        1 UNL1     0.0661
     43 C         -0.960194   -4.807424   -9.404149 C.2        1 UNL1     0.2131
     44 O         -1.538251   -5.047224   -10.448699 O.2        1 UNL1     -0.2851
     45 O         -0.260412   -2.97855   -11.411737 O.3        1 UNL1     -0.5056
     46 O         0.935528   -1.686245   -5.152604 O.2        1 UNL1     -0.2836
     47 C         4.144228   -3.441736   -2.517323 C.3        1 UNL1     -0.0566
     48 O         2.257915   -3.47293   -0.378883 O.3        1 UNL1     -0.3909
     49 C         0.266679   -1.022589   0.082543 C.3        1 UNL1     -0.0577
     50 O         2.780687   0.679549   -1.862248 O.3        1 UNL1     -0.3910
     51 O         1.487629   3.121026   -2.563704 O.3        1 UNL1     -0.3753
     52 C         -1.158343   0.49068   -2.134539 C.3        1 UNL1     -0.0564
     53 O         -0.919393   1.833231   0.840833 O.3        1 UNL1     -0.4608
     54 C         -0.581879   1.282059   2.04923 C.2        1 UNL1     0.3042
     55 O         -0.731362   0.113789   2.405093 O.2        1 UNL1     -0.2512
     56 C         0.092431   2.246618   2.982851 C.3        1 UNL1     0.0332
     57 C         2.352334   3.260462   -0.160117 C.3        1 UNL1     -0.0567
     58 C         -0.787969   0.764061   -6.524696 C.3        1 UNL1     0.0210
     59 C         2.230058   3.654707   -3.65908 C.3        1 UNL1     0.0372
     60 C         0.52837   1.625236   -4.065461 C.2        1 UNL1     -0.0208
     61 C         1.646762   1.427699   -4.764691 C.2        1 UNL1     0.0882
     62 H         2.420969   -2.695427   -3.545779 H        1 UNL1     0.0365
     63 H         2.251428   -3.999114   -5.108432 H        1 UNL1     0.0576
     64 H         2.382975   -6.921364   -4.138934 H        1 UNL1     0.0615
     65 H         1.873854   -5.629906   -6.937288 H        1 UNL1     0.0622
     66 H         -0.4032   3.318521   -3.300542 H        1 UNL1     0.0645
     67 H         -1.49502   2.455198   -1.699665 H        1 UNL1     0.0362
     68 H         -0.072217   3.247903   -0.228874 H        1 UNL1     0.0741
     69 H         1.712462   1.799569   1.091595 H        1 UNL1     0.0359
     70 H         3.211686   0.483246   0.082074 H        1 UNL1     0.0600
     71 H         2.216398   -1.380055   0.574235 H        1 UNL1     0.0348
     72 H         2.656115   -1.855252   -1.773718 H        1 UNL1     0.0602
     73 H         -0.383461   1.18736   -4.388069 H        1 UNL1     0.0628
     74 H         2.631146   1.79246   -4.469437 H        1 UNL1     0.1022
     75 H         0.867943   -9.528448   -8.151277 H        1 UNL1     0.0279
     76 H         1.966501   -9.804956   -6.858987 H        1 UNL1     0.0279
     77 H         0.217297   -9.444083   -6.56683 H        1 UNL1     0.0279
     78 H         -1.077176   -7.658846   -7.778461 H        1 UNL1     0.1553
     79 H         -1.131735   -7.100196   -5.878156 H        1 UNL1     0.1484
     80 H         -2.72923   -4.379946   -3.759727 H        1 UNL1     0.0317
     81 H         -3.003472   -4.520941   -5.490286 H        1 UNL1     0.0317
     82 H         -3.106004   -7.022383   -5.329104 H        1 UNL1     0.0428
     83 H         -4.278377   -6.229668   -4.300101 H        1 UNL1     0.0428
     84 H         -0.724164   -7.618694   -2.418263 H        1 UNL1     0.0428
     85 H         -0.867869   -7.92903   -4.113008 H        1 UNL1     0.0428
     86 H         0.531524   -5.977762   -3.435436 H        1 UNL1     0.0317
     87 H         -0.76752   -5.185781   -2.668883 H        1 UNL1     0.0317
     88 H         -2.782731   -9.090937   -3.094364 H        1 UNL1     0.0429
     89 H         -3.460865   -8.200381   -1.729344 H        1 UNL1     0.0429
     90 H         -4.745019   -7.530489   -4.335521 H        1 UNL1     0.0308
     91 H         -4.50619   -10.432689   -3.498689 H        1 UNL1     0.0233
     92 H         -6.073474   -9.855497   -4.119949 H        1 UNL1     0.0233
     93 H         -4.639531   -9.761505   -5.119737 H        1 UNL1     0.0233
     94 H         -6.784661   -8.213467   -2.876929 H        1 UNL1     0.0233
     95 H         -5.610684   -8.221072   -1.551769 H        1 UNL1     0.0233
     96 H         -5.883524   -6.733667   -2.488346 H        1 UNL1     0.0233
     97 H         1.333086   -0.256175   -11.482481 H        1 UNL1     0.0280
     98 H         -0.406313   -0.154239   -11.518368 H        1 UNL1     0.0280
     99 H         0.513459   0.797297   -10.314903 H        1 UNL1     0.0280
     100 H         -1.148877   -3.197742   -11.6313 H        1 UNL1     0.2922
     101 H         4.635884   -4.381746   -2.766945 H        1 UNL1     0.0236
     102 H         4.327545   -3.145853   -1.484932 H        1 UNL1     0.0236
     103 H         4.666333   -2.683099   -3.12401 H        1 UNL1     0.0236
     104 H         2.623348   -4.278475   -0.794245 H        1 UNL1     0.2098
     105 H         -0.422249   -1.596739   -0.531901 H        1 UNL1     0.0234
     106 H         0.107485   -1.245308   1.137522 H        1 UNL1     0.0234
     107 H         0.0   0.0   0.0 H        1 UNL1     0.0234
     108 H         3.686619   1.037454   -1.791815 H        1 UNL1     0.2098
     109 H         -1.185461   -0.212632   -1.290544 H        1 UNL1     0.0234
     110 H         -2.156431   0.568359   -2.578981 H        1 UNL1     0.0234
     111 H         -0.558311   -0.000869   -2.911899 H        1 UNL1     0.0234
     112 H         -0.437175   3.204115   2.97495 H        1 UNL1     0.0342
     113 H         0.169691   1.851197   3.994541 H        1 UNL1     0.0342
     114 H         1.112801   2.423099   2.615613 H        1 UNL1     0.0342
     115 H         3.380568   3.201319   0.222539 H        1 UNL1     0.0234
     116 H         2.406167   3.607261   -1.193985 H        1 UNL1     0.0234
     117 H         1.943446   4.081472   0.453638 H        1 UNL1     0.0234
     118 H         -0.817685   1.854162   -6.35206 H        1 UNL1     0.0309
     119 H         -1.41611   0.520839   -7.387532 H        1 UNL1     0.0309
     120 H         -1.304162   0.355516   -5.649057 H        1 UNL1     0.0309
     121 H         3.282574   3.650867   -3.377029 H        1 UNL1     0.0524
     122 H         2.128501   3.042952   -4.570935 H        1 UNL1     0.0524
     123 H         1.903855   4.667912   -3.876109 H        1 UNL1     0.0524
@<TRIPOS>BOND
     1     1     2    1
     2     1    42    1
     3     2     3    2
     4     3     4    1
     5     4     5    2
     6     5     7    1
     7     6    75    1
     8     6    76    1
     9     6    77    1
    10     7     9   am
    11     9    10    1
    12    10    11    2
    13    10    43    1
    14    11    14    1
    15    11    15    1
    16    12    13   ar
    17    12    27   ar
    18    12    43    1
    19    13    14    1
    20    13    30   ar
    21    14    17    2
    22    15    16    1
    23    16    17    1
    24    16    18    1
    25    16    22    1
    26    18    19    1
    27    19    20    1
    28    20    21    1
    29    21    22    1
    30    23    24    1
    31    23    88    1
    32    23    89    1
    33    24    25    1
    34    24    26    1
    35    24    90    1
    36    25    91    1
    37    25    92    1
    38    25    93    1
    39    26    94    1
    40    26    95    1
    41    26    96    1
    42    27    28   ar
    43    28    29   ar
    44    29    30   ar
    45    29    31    1
    46    30    33    1
    47    31    32    1
    48    32    33    1
    49    32    35    1
    50    34    97    1
    51    34    98    1
    52    34    99    1
    53    35    61    1
    54    36    37    1
    55    36    60    1
    56    37    38    1
    57    38    39    1
    58    39    40    1
    59    40    41    1
    60    41    42    1
    61    45   100    1
    62    47   101    1
    63    47   102    1
    64    47   103    1
    65    48   104    1
    66    49   105    1
    67    49   106    1
    68    49   107    1
    69    50   108    1
    70    51    59    1
    71    52   109    1
    72    52   110    1
    73    52   111    1
    74    53    54    1
    75    54    55    2
    76    54    56    1
    77    56   112    1
    78    56   113    1
    79    56   114    1
    80    57   115    1
    81    57   116    1
    82    57   117    1
    83    58   118    1
    84    58   119    1
    85    58   120    1
    86    59   121    1
    87    59   122    1
    88    59   123    1
    89    60    61    2
    90     1    47    1
    91     1    62    1
    92     2    63    1
    93     3    64    1
    94     4    65    1
    95     5     6    1
    96     7     8    2
    97     9    78    1
    98    15    79    1
    99    18    80    1
   100    18    81    1
   101    19    82    1
   102    19    83    1
   103    20    23    1
   104    21    84    1
   105    21    85    1
   106    22    86    1
   107    22    87    1
   108    27    45    1
   109    28    34    1
   110    32    58    1
   111    33    46    2
   112    36    51    1
   113    36    66    1
   114    37    52    1
   115    37    67    1
   116    38    53    1
   117    38    68    1
   118    42    48    1
   119    42    72    1
   120    43    44    2
   121    60    73    1
   122    61    74    1
   123    39    69    1
   124    39    57    1
   125    40    70    1
   126    40    50    1
   127    41    71    1
   128    41    49    1
