@<TRIPOS>MOLECULE
*****
 123 128 0 0 0
SMALL
GASTEIGER

@<TRIPOS>ATOM
     1 C         5.168848   1.744276   0.489677 C.3        1 UNL1     0.0009
     2 C         6.605928   2.549253   -0.361117 C.2        1 UNL1     -0.0787
     3 C         7.887485   2.450044   -1.027312 C.2        1 UNL1     -0.0649
     4 C         8.765729   3.684506   -1.783056 C.2        1 UNL1     -0.0542
     5 C         9.785673   3.97639   -2.721989 C.2        1 UNL1     0.0115
     6 C         10.913024   3.350082   -3.588096 C.3        1 UNL1     -0.0348
     7 C         9.882075   5.45964   -3.328344 C.2        1 UNL1     0.2441
     8 O         10.7068   6.280529   -2.950861 O.2        1 UNL1     -0.2702
     9 N         9.131616   5.667399   -4.498728 N.am        1 UNL1     -0.2772
     10 C         7.849346   6.055147   -4.184469 C.2        1 UNL1     0.1049
     11 C         7.002827   5.084427   -3.892356 C.2        1 UNL1     0.0801
     12 C         6.552841   7.662741   -2.77307 C.ar        1 UNL1     0.0753
     13 C         5.79297   6.535424   -2.325451 C.ar        1 UNL1     0.0305
     14 C         5.908547   5.229704   -2.971041 C.2        1 UNL1     0.0924
     15 N         7.124245   3.755363   -4.051653 N.pl3        1 UNL1     -0.3170
     16 C         5.853981   3.157249   -3.7371 C.3        1 UNL1     0.1275
     17 N         5.218753   4.11291   -2.756834 N.2        1 UNL1     -0.2557
     18 C         5.000735   3.217212   -5.00046 C.3        1 UNL1     0.0016
     19 C         5.754625   2.53261   -6.129424 C.3        1 UNL1     0.0026
     20 N         6.023716   1.154228   -5.743832 N.3        1 UNL1     -0.3018
     21 C         6.787375   0.993021   -4.504797 C.3        1 UNL1     0.0026
     22 C         6.009624   1.684073   -3.383439 C.3        1 UNL1     0.0016
     23 C         6.467121   0.334445   -6.853783 C.3        1 UNL1     0.0012
     24 C         5.311112   0.086087   -7.835474 C.3        1 UNL1     -0.0339
     25 C         5.337118   1.089387   -9.000279 C.3        1 UNL1     -0.0615
     26 C         5.349093   -1.348591   -8.3325 C.3        1 UNL1     -0.0615
     27 C         6.349466   8.930544   -2.233225 C.ar        1 UNL1     0.1347
     28 C         5.390982   9.200801   -1.27285 C.ar        1 UNL1     0.0342
     29 C         4.688607   8.0669   -0.812306 C.ar        1 UNL1     0.1435
     30 C         4.906764   6.784746   -1.317983 C.ar        1 UNL1     0.0774
     31 O         3.648019   8.181259   0.04157 O.3        1 UNL1     -0.4436
     32 C         2.925227   6.94908   -0.100481 C.3        1 UNL1     0.3143
     33 C         3.937477   5.955165   -0.633114 C.2        1 UNL1     0.2504
     34 C         4.94548   10.567236   -0.831849 C.3        1 UNL1     -0.0327
     35 O         2.564688   6.512533   1.215836 O.2        1 UNL1     -0.4528
     36 C         -0.680166   4.583192   0.820043 C.3        1 UNL1     0.0854
     37 C         -0.986883   3.322977   -0.077346 C.3        1 UNL1     0.0236
     38 C         -1.588241   2.062359   0.710661 C.3        1 UNL1     0.1131
     39 C         -0.86247   1.530646   2.01174 C.3        1 UNL1     0.0200
     40 C         0.798611   1.383664   2.052288 C.3        1 UNL1     0.0661
     41 C         1.756892   0.614142   0.883039 C.3        1 UNL1     0.0091
     42 C         3.464587   0.975291   0.318455 C.3        1 UNL1     0.0661
     43 C         7.502296   7.454349   -3.894393 C.2        1 UNL1     0.2131
     44 O         7.902693   8.352164   -4.612967 O.2        1 UNL1     -0.2851
     45 O         7.162459   9.965003   -2.691892 O.3        1 UNL1     -0.5056
     46 O         3.952475   4.751603   -0.502479 O.2        1 UNL1     -0.2836
     47 C         5.565364   1.314294   1.927687 C.3        1 UNL1     -0.0566
     48 O         3.911962   -0.43621   0.399919 O.3        1 UNL1     -0.3909
     49 C         0.922052   0.382412   -0.356653 C.3        1 UNL1     -0.0577
     50 O         1.400005   2.600963   2.44501 O.3        1 UNL1     -0.3910
     51 O         -0.803909   4.39347   2.21149 O.3        1 UNL1     -0.3753
     52 C         0.057011   3.161732   -1.23027 C.3        1 UNL1     -0.0564
     53 O         -2.192071   1.023996   -0.189071 O.3        1 UNL1     -0.4608
     54 C         -2.427486   -0.28259   0.15055 C.2        1 UNL1     0.3042
     55 O         -1.859412   -1.282164   -0.287609 O.2        1 UNL1     -0.2512
     56 C         -3.467254   -0.447453   1.222192 C.3        1 UNL1     0.0332
     57 C         -1.582456   2.200125   3.273323 C.3        1 UNL1     -0.0567
     58 C         1.849847   7.195218   -1.184225 C.3        1 UNL1     0.0210
     59 C         -1.146743   5.566325   2.948199 C.3        1 UNL1     0.0372
     60 C         0.649289   5.211151   0.589006 C.2        1 UNL1     -0.0208
     61 C         1.56292   5.6455   1.458122 C.2        1 UNL1     0.0882
     62 H         4.693812   2.72885   0.577225 H        1 UNL1     0.0365
     63 H         6.340632   3.603271   -0.255602 H        1 UNL1     0.0576
     64 H         8.344221   1.482823   -1.248631 H        1 UNL1     0.0615
     65 H         8.279567   4.600287   -1.435961 H        1 UNL1     0.0622
     66 H         -1.424285   5.330397   0.510175 H        1 UNL1     0.0645
     67 H         -1.85239   3.633157   -0.688286 H        1 UNL1     0.0362
     68 H         -2.534802   2.500018   1.062795 H        1 UNL1     0.0741
     69 H         -1.194795   0.519816   2.207159 H        1 UNL1     0.0359
     70 H         0.910142   0.723144   2.933387 H        1 UNL1     0.0600
     71 H         1.799749   -0.407105   1.309858 H        1 UNL1     0.0348
     72 H         3.359492   1.463486   1.298219 H        1 UNL1     0.0602
     73 H         0.766969   5.408405   -0.44757 H        1 UNL1     0.0628
     74 H         1.54559   5.434741   2.527944 H        1 UNL1     0.1022
     75 H         10.956604   2.244749   -3.435209 H        1 UNL1     0.0279
     76 H         10.799061   3.43308   -4.66661 H        1 UNL1     0.0279
     77 H         11.918484   3.653881   -3.261819 H        1 UNL1     0.0279
     78 H         9.068666   4.797558   -5.0236 H        1 UNL1     0.1553
     79 H         7.788914   3.326859   -4.669337 H        1 UNL1     0.1484
     80 H         4.039101   2.727092   -4.806015 H        1 UNL1     0.0317
     81 H         4.774925   4.254189   -5.271273 H        1 UNL1     0.0317
     82 H         6.685656   3.06313   -6.377704 H        1 UNL1     0.0428
     83 H         5.129187   2.588385   -7.020921 H        1 UNL1     0.0428
     84 H         6.906906   -0.050066   -4.195778 H        1 UNL1     0.0428
     85 H         7.817747   1.360171   -4.608964 H        1 UNL1     0.0428
     86 H         6.526169   1.433171   -2.475575 H        1 UNL1     0.0317
     87 H         5.029812   1.207274   -3.25803 H        1 UNL1     0.0317
     88 H         7.263457   0.875604   -7.381316 H        1 UNL1     0.0429
     89 H         6.899028   -0.611738   -6.503112 H        1 UNL1     0.0429
     90 H         4.358543   0.193569   -7.303241 H        1 UNL1     0.0308
     91 H         6.286983   1.04589   -9.541542 H        1 UNL1     0.0233
     92 H         4.518255   0.894125   -9.696658 H        1 UNL1     0.0233
     93 H         5.210705   2.125061   -8.662293 H        1 UNL1     0.0233
     94 H         4.652389   -1.477484   -9.16786 H        1 UNL1     0.0233
     95 H         6.353119   -1.593702   -8.690013 H        1 UNL1     0.0233
     96 H         5.074409   -2.052269   -7.541707 H        1 UNL1     0.0233
     97 H         4.152376   10.518072   -0.091715 H        1 UNL1     0.0280
     98 H         5.758901   11.13653   -0.363332 H        1 UNL1     0.0280
     99 H         4.571965   11.132177   -1.701575 H        1 UNL1     0.0280
     100 H         6.695958   10.716049   -3.014273 H        1 UNL1     0.2922
     101 H         4.702365   0.881353   2.433109 H        1 UNL1     0.0236
     102 H         6.017059   2.119193   2.506559 H        1 UNL1     0.0236
     103 H         6.320918   0.51097   1.926226 H        1 UNL1     0.0236
     104 H         4.331714   -0.562645   1.273299 H        1 UNL1     0.2098
     105 H         0.709967   1.281481   -0.929808 H        1 UNL1     0.0234
     106 H         1.290512   -0.405867   -1.012992 H        1 UNL1     0.0234
     107 H         0.0   -0.0   0.0 H        1 UNL1     0.0234
     108 H         1.202362   3.259268   1.751222 H        1 UNL1     0.2098
     109 H         1.08189   3.047335   -0.850471 H        1 UNL1     0.0234
     110 H         -0.176402   2.334897   -1.909686 H        1 UNL1     0.0234
     111 H         0.07872   4.044588   -1.882987 H        1 UNL1     0.0234
     112 H         -3.60059   -1.509116   1.451187 H        1 UNL1     0.0342
     113 H         -3.22321   0.118265   2.120105 H        1 UNL1     0.0342
     114 H         -4.421668   -0.063746   0.83615 H        1 UNL1     0.0342
     115 H         -2.65228   1.95277   3.311808 H        1 UNL1     0.0234
     116 H         -1.145878   1.919899   4.234012 H        1 UNL1     0.0234
     117 H         -1.620121   3.302019   3.224812 H        1 UNL1     0.0234
     118 H         0.949349   7.682863   -0.771536 H        1 UNL1     0.0309
     119 H         2.219404   7.782961   -2.030504 H        1 UNL1     0.0309
     120 H         1.460311   6.263634   -1.609101 H        1 UNL1     0.0309
     121 H         -0.34194   6.2882   2.812019 H        1 UNL1     0.0524
     122 H         -2.076639   6.033011   2.582773 H        1 UNL1     0.0524
     123 H         -1.262237   5.328033   4.001751 H        1 UNL1     0.0524
@<TRIPOS>BOND
     1     1     2    1
     2     1    42    1
     3     2     3    2
     4     3     4    1
     5     4     5    2
     6     5     7    1
     7     6    75    1
     8     6    76    1
     9     6    77    1
    10     7     9   am
    11     9    10    1
    12    10    11    2
    13    10    43    1
    14    11    14    1
    15    11    15    1
    16    12    13   ar
    17    12    27   ar
    18    12    43    1
    19    13    14    1
    20    13    30   ar
    21    14    17    2
    22    15    16    1
    23    16    17    1
    24    16    18    1
    25    16    22    1
    26    18    19    1
    27    19    20    1
    28    20    21    1
    29    21    22    1
    30    23    24    1
    31    23    88    1
    32    23    89    1
    33    24    25    1
    34    24    26    1
    35    24    90    1
    36    25    91    1
    37    25    92    1
    38    25    93    1
    39    26    94    1
    40    26    95    1
    41    26    96    1
    42    27    28   ar
    43    28    29   ar
    44    29    30   ar
    45    29    31    1
    46    30    33    1
    47    31    32    1
    48    32    33    1
    49    32    35    1
    50    34    97    1
    51    34    98    1
    52    34    99    1
    53    35    61    1
    54    36    37    1
    55    36    60    1
    56    37    38    1
    57    38    39    1
    58    39    40    1
    59    40    41    1
    60    41    42    1
    61    45   100    1
    62    47   101    1
    63    47   102    1
    64    47   103    1
    65    48   104    1
    66    49   105    1
    67    49   106    1
    68    49   107    1
    69    50   108    1
    70    51    59    1
    71    52   109    1
    72    52   110    1
    73    52   111    1
    74    53    54    1
    75    54    55    2
    76    54    56    1
    77    56   112    1
    78    56   113    1
    79    56   114    1
    80    57   115    1
    81    57   116    1
    82    57   117    1
    83    58   118    1
    84    58   119    1
    85    58   120    1
    86    59   121    1
    87    59   122    1
    88    59   123    1
    89    60    61    2
    90     1    47    1
    91     1    62    1
    92     2    63    1
    93     3    64    1
    94     4    65    1
    95     5     6    1
    96     7     8    2
    97     9    78    1
    98    15    79    1
    99    18    80    1
   100    18    81    1
   101    19    82    1
   102    19    83    1
   103    20    23    1
   104    21    84    1
   105    21    85    1
   106    22    86    1
   107    22    87    1
   108    27    45    1
   109    28    34    1
   110    32    58    1
   111    33    46    2
   112    36    51    1
   113    36    66    1
   114    37    52    1
   115    37    67    1
   116    38    53    1
   117    38    68    1
   118    42    48    1
   119    42    72    1
   120    43    44    2
   121    60    73    1
   122    61    74    1
   123    39    69    1
   124    39    57    1
   125    40    70    1
   126    40    50    1
   127    41    71    1
   128    41    49    1
