@<TRIPOS>MOLECULE
*****
 123 128 0 0 0
SMALL
GASTEIGER

@<TRIPOS>ATOM
     1 C         -0.333732   -1.388987   -4.663312 C.3        1 UNL1     0.0009
     2 C         -1.438865   -2.38377   -5.770617 C.2        1 UNL1     -0.0787
     3 C         -1.880157   -3.663849   -6.283165 C.2        1 UNL1     -0.0649
     4 C         -3.174291   -3.975756   -7.329247 C.2        1 UNL1     -0.0542
     5 C         -4.072667   -4.96378   -7.802327 C.2        1 UNL1     0.0115
     6 C         -4.380994   -6.486361   -7.800005 C.3        1 UNL1     -0.0348
     7 C         -5.415905   -4.499077   -8.548485 C.2        1 UNL1     0.2441
     8 O         -5.547374   -4.532555   -9.764265 O.2        1 UNL1     -0.2702
     9 N         -6.520492   -4.29875   -7.702372 N.am        1 UNL1     -0.2772
     10 C         -6.532719   -3.007866   -7.226145 C.2        1 UNL1     0.1049
     11 C         -5.768108   -2.767457   -6.176481 C.2        1 UNL1     0.0801
     12 C         -6.346991   -0.62249   -7.956089 C.ar        1 UNL1     0.0753
     13 C         -5.362131   -0.46683   -6.929235 C.ar        1 UNL1     0.0305
     14 C         -5.137553   -1.500687   -5.921388 C.2        1 UNL1     0.0924
     15 N         -5.131926   -3.622256   -5.357263 N.pl3        1 UNL1     -0.3170
     16 C         -4.578168   -2.859307   -4.270288 C.3        1 UNL1     0.1275
     17 N         -4.347189   -1.485909   -4.851793 N.2        1 UNL1     -0.2557
     18 C         -5.677877   -2.697243   -3.225263 C.3        1 UNL1     0.0016
     19 C         -6.181627   -4.076637   -2.83144 C.3        1 UNL1     0.0026
     20 N         -5.065781   -4.848685   -2.302425 N.3        1 UNL1     -0.3018
     21 C         -3.931217   -5.006756   -3.214645 C.3        1 UNL1     0.0026
     22 C         -3.438266   -3.609158   -3.593609 C.3        1 UNL1     0.0016
     23 C         -5.487859   -6.059089   -1.626099 C.3        1 UNL1     0.0012
     24 C         -6.191363   -5.719262   -0.302711 C.3        1 UNL1     -0.0339
     25 C         -7.571119   -5.085825   -0.545787 C.3        1 UNL1     -0.0615
     26 C         -6.291374   -6.960035   0.567497 C.3        1 UNL1     -0.0615
     27 C         -6.639598   0.414593   -8.838675 C.ar        1 UNL1     0.1347
     28 C         -6.043752   1.661192   -8.767906 C.ar        1 UNL1     0.0342
     29 C         -5.042427   1.775531   -7.780263 C.ar        1 UNL1     0.1435
     30 C         -4.713083   0.733574   -6.912461 C.ar        1 UNL1     0.0774
     31 O         -4.447367   2.958672   -7.513638 O.3        1 UNL1     -0.4436
     32 C         -3.883628   2.794024   -6.20369 C.3        1 UNL1     0.3143
     33 C         -3.712463   1.298308   -6.031211 C.2        1 UNL1     0.2504
     34 C         -6.482707   2.891744   -9.511653 C.3        1 UNL1     -0.0327
     35 O         -2.569216   3.363964   -6.23089 O.2        1 UNL1     -0.4528
     36 C         -1.906015   4.618822   -2.710438 C.3        1 UNL1     0.0854
     37 C         -1.929123   3.823822   -1.348467 C.3        1 UNL1     0.0236
     38 C         -0.583417   3.927592   -0.482413 C.3        1 UNL1     0.1131
     39 C         0.812989   3.627791   -1.162444 C.3        1 UNL1     0.0200
     40 C         0.99146   2.322794   -2.185951 C.3        1 UNL1     0.0661
     41 C         0.510938   0.729413   -1.857551 C.3        1 UNL1     0.0091
     42 C         -0.095513   -0.586509   -2.982704 C.3        1 UNL1     0.0661
     43 C         -7.11037   -1.894534   -7.993716 C.2        1 UNL1     0.2131
     44 O         -8.198594   -2.010883   -8.52754 O.2        1 UNL1     -0.2851
     45 O         -7.578304   0.165814   -9.837864 O.3        1 UNL1     -0.5056
     46 O         -2.91486   0.705971   -5.339243 O.2        1 UNL1     -0.2836
     47 C         1.104318   -1.333545   -5.24548 C.3        1 UNL1     -0.0566
     48 O         0.796959   -1.63191   -2.426157 O.3        1 UNL1     -0.3909
     49 C         -0.401465   0.733642   -0.651318 C.3        1 UNL1     -0.0577
     50 O         0.636955   2.671408   -3.509023 O.3        1 UNL1     -0.3910
     51 O         -0.662948   5.171627   -3.080064 O.3        1 UNL1     -0.3753
     52 C         -2.741931   2.49316   -1.465219 C.3        1 UNL1     -0.0564
     53 O         -0.746565   3.470953   0.937865 O.3        1 UNL1     -0.4608
     54 C         0.188891   2.780985   1.663671 C.2        1 UNL1     0.3042
     55 O         0.196539   1.577628   1.920015 O.2        1 UNL1     -0.2512
     56 C         1.338506   3.630721   2.125243 C.3        1 UNL1     0.0332
     57 C         1.435198   5.02721   -1.623591 C.3        1 UNL1     -0.0567
     58 C         -4.951245   3.292752   -5.202194 C.3        1 UNL1     0.0210
     59 C         -0.580928   6.591584   -2.96666 C.3        1 UNL1     0.0372
     60 C         -2.40636   3.860874   -3.88956 C.2        1 UNL1     -0.0208
     61 C         -1.910543   3.755173   -5.123148 C.2        1 UNL1     0.0882
     62 H         -0.84409   -0.479626   -5.002886 H        1 UNL1     0.0365
     63 H         -1.966635   -1.587683   -6.299933 H        1 UNL1     0.0576
     64 H         -1.489906   -4.604208   -5.887517 H        1 UNL1     0.0615
     65 H         -3.433185   -2.989822   -7.724712 H        1 UNL1     0.0622
     66 H         -2.615408   5.444761   -2.559997 H        1 UNL1     0.0645
     67 H         -2.638789   4.389393   -0.719927 H        1 UNL1     0.0362
     68 H         -0.580935   5.008597   -0.275186 H        1 UNL1     0.0741
     69 H         1.540344   3.423102   -0.388193 H        1 UNL1     0.0359
     70 H         2.095435   2.246128   -2.206466 H        1 UNL1     0.0600
     71 H         1.447433   0.331412   -1.419912 H        1 UNL1     0.0348
     72 H         0.422574   0.143564   -3.621371 H        1 UNL1     0.0602
     73 H         -3.363526   3.459403   -3.666173 H        1 UNL1     0.0628
     74 H         -0.914738   4.087764   -5.418094 H        1 UNL1     0.1022
     75 H         -3.458322   -7.073523   -8.025728 H        1 UNL1     0.0279
     76 H         -4.705375   -6.914212   -6.854072 H        1 UNL1     0.0279
     77 H         -5.038289   -6.788419   -8.628513 H        1 UNL1     0.0279
     78 H         -6.453608   -4.920835   -6.899493 H        1 UNL1     0.1553
     79 H         -5.367347   -4.594219   -5.274813 H        1 UNL1     0.1484
     80 H         -5.273012   -2.156898   -2.361043 H        1 UNL1     0.0317
     81 H         -6.502429   -2.091163   -3.615689 H        1 UNL1     0.0317
     82 H         -6.654845   -4.594461   -3.678692 H        1 UNL1     0.0428
     83 H         -6.96622   -3.937709   -2.087018 H        1 UNL1     0.0428
     84 H         -3.075795   -5.521087   -2.765726 H        1 UNL1     0.0428
     85 H         -4.189158   -5.626986   -4.084184 H        1 UNL1     0.0428
     86 H         -2.532389   -3.762688   -4.150209 H        1 UNL1     0.0317
     87 H         -3.098208   -3.075972   -2.697411 H        1 UNL1     0.0317
     88 H         -6.200676   -6.582836   -2.276387 H        1 UNL1     0.0429
     89 H         -4.642442   -6.739563   -1.461785 H        1 UNL1     0.0429
     90 H         -5.574764   -5.007997   0.259535 H        1 UNL1     0.0308
     91 H         -8.174997   -5.696063   -1.224053 H        1 UNL1     0.0233
     92 H         -8.10893   -4.958012   0.396568 H        1 UNL1     0.0233
     93 H         -7.499209   -4.087727   -0.994636 H        1 UNL1     0.0233
     94 H         -5.650571   -6.855312   1.449676 H        1 UNL1     0.0233
     95 H         -7.320687   -7.092585   0.912328 H        1 UNL1     0.0233
     96 H         -5.983862   -7.856262   0.021436 H        1 UNL1     0.0233
     97 H         -6.734091   3.706382   -8.839045 H        1 UNL1     0.0280
     98 H         -5.69567   3.279066   -10.171813 H        1 UNL1     0.0280
     99 H         -7.372381   2.658106   -10.119097 H        1 UNL1     0.0280
     100 H         -7.434831   -0.629109   -10.320705 H        1 UNL1     0.2922
     101 H         1.284155   -0.354189   -5.6884 H        1 UNL1     0.0236
     102 H         1.315765   -2.143069   -5.943294 H        1 UNL1     0.0236
     103 H         1.872878   -1.43114   -4.460634 H        1 UNL1     0.0236
     104 H         1.657049   -1.211557   -2.229893 H        1 UNL1     0.2098
     105 H         -0.429286   1.677448   -0.112555 H        1 UNL1     0.0234
     106 H         -1.413791   0.379139   -0.844838 H        1 UNL1     0.0234
     107 H         0.0   0.0   0.0 H        1 UNL1     0.0234
     108 H         0.792484   1.88559   -4.067655 H        1 UNL1     0.2098
     109 H         -3.792649   2.669792   -1.734485 H        1 UNL1     0.0234
     110 H         -2.298968   1.778423   -2.16713 H        1 UNL1     0.0234
     111 H         -2.766882   1.949149   -0.511608 H        1 UNL1     0.0234
     112 H         2.056269   3.017215   2.678211 H        1 UNL1     0.0342
     113 H         1.822506   4.148883   1.298747 H        1 UNL1     0.0342
     114 H         0.947208   4.393233   2.812721 H        1 UNL1     0.0342
     115 H         2.531832   5.028697   -1.555921 H        1 UNL1     0.0234
     116 H         1.168649   5.317598   -2.641764 H        1 UNL1     0.0234
     117 H         1.179146   5.865012   -0.952423 H        1 UNL1     0.0234
     118 H         -4.650569   4.234421   -4.710403 H        1 UNL1     0.0309
     119 H         -5.938107   3.425384   -5.656851 H        1 UNL1     0.0309
     120 H         -5.094325   2.60381   -4.362554 H        1 UNL1     0.0309
     121 H         0.176546   6.935333   -3.670525 H        1 UNL1     0.0524
     122 H         -1.529483   7.087893   -3.231153 H        1 UNL1     0.0524
     123 H         -0.306467   6.872509   -1.953819 H        1 UNL1     0.0524
@<TRIPOS>BOND
     1     1     2    1
     2     1    42    1
     3     2     3    2
     4     3     4    1
     5     4     5    2
     6     5     7    1
     7     6    75    1
     8     6    76    1
     9     6    77    1
    10     7     9   am
    11     9    10    1
    12    10    11    2
    13    10    43    1
    14    11    14    1
    15    11    15    1
    16    12    13   ar
    17    12    27   ar
    18    12    43    1
    19    13    14    1
    20    13    30   ar
    21    14    17    2
    22    15    16    1
    23    16    17    1
    24    16    18    1
    25    16    22    1
    26    18    19    1
    27    19    20    1
    28    20    21    1
    29    21    22    1
    30    23    24    1
    31    23    88    1
    32    23    89    1
    33    24    25    1
    34    24    26    1
    35    24    90    1
    36    25    91    1
    37    25    92    1
    38    25    93    1
    39    26    94    1
    40    26    95    1
    41    26    96    1
    42    27    28   ar
    43    28    29   ar
    44    29    30   ar
    45    29    31    1
    46    30    33    1
    47    31    32    1
    48    32    33    1
    49    32    35    1
    50    34    97    1
    51    34    98    1
    52    34    99    1
    53    35    61    1
    54    36    37    1
    55    36    60    1
    56    37    38    1
    57    38    39    1
    58    39    40    1
    59    40    41    1
    60    41    42    1
    61    45   100    1
    62    47   101    1
    63    47   102    1
    64    47   103    1
    65    48   104    1
    66    49   105    1
    67    49   106    1
    68    49   107    1
    69    50   108    1
    70    51    59    1
    71    52   109    1
    72    52   110    1
    73    52   111    1
    74    53    54    1
    75    54    55    2
    76    54    56    1
    77    56   112    1
    78    56   113    1
    79    56   114    1
    80    57   115    1
    81    57   116    1
    82    57   117    1
    83    58   118    1
    84    58   119    1
    85    58   120    1
    86    59   121    1
    87    59   122    1
    88    59   123    1
    89    60    61    2
    90     1    47    1
    91     1    62    1
    92     2    63    1
    93     3    64    1
    94     4    65    1
    95     5     6    1
    96     7     8    2
    97     9    78    1
    98    15    79    1
    99    18    80    1
   100    18    81    1
   101    19    82    1
   102    19    83    1
   103    20    23    1
   104    21    84    1
   105    21    85    1
   106    22    86    1
   107    22    87    1
   108    27    45    1
   109    28    34    1
   110    32    58    1
   111    33    46    2
   112    36    51    1
   113    36    66    1
   114    37    52    1
   115    37    67    1
   116    38    53    1
   117    38    68    1
   118    42    48    1
   119    42    72    1
   120    43    44    2
   121    60    73    1
   122    61    74    1
   123    39    69    1
   124    39    57    1
   125    40    70    1
   126    40    50    1
   127    41    71    1
   128    41    49    1
