@<TRIPOS>MOLECULE
*****
 123 128 0 0 0
SMALL
GASTEIGER

@<TRIPOS>ATOM
     1 C         5.168268   1.746484   0.487927 C.3        1 UNL1     0.0009
     2 C         6.604942   2.551461   -0.363553 C.2        1 UNL1     -0.0787
     3 C         7.88645   2.45231   -1.029851 C.2        1 UNL1     -0.0649
     4 C         8.764142   3.686625   -1.786476 C.2        1 UNL1     -0.0542
     5 C         9.783858   3.9783   -2.725721 C.2        1 UNL1     0.0115
     6 C         10.911329   3.351868   -3.591583 C.3        1 UNL1     -0.0348
     7 C         9.879635   5.461207   -3.333012 C.2        1 UNL1     0.2441
     8 O         10.704107   6.282635   -2.956146 O.2        1 UNL1     -0.2702
     9 N         9.12895   5.667962   -4.503428 N.am        1 UNL1     -0.2772
     10 C         7.846578   6.055432   -4.189246 C.2        1 UNL1     0.1049
     11 C         7.000454   5.084582   -3.89642 C.2        1 UNL1     0.0801
     12 C         6.549661   7.663427   -2.778681 C.ar        1 UNL1     0.0753
     13 C         5.790263   6.536109   -2.330263 C.ar        1 UNL1     0.0305
     14 C         5.906238   5.230029   -2.975055 C.2        1 UNL1     0.0924
     15 N         7.122341   3.755465   -4.054906 N.pl3        1 UNL1     -0.3170
     16 C         5.852338   3.157079   -3.739817 C.3        1 UNL1     0.1275
     17 N         5.216884   4.113115   -2.760065 N.2        1 UNL1     -0.2557
     18 C         4.998908   3.215941   -5.003104 C.3        1 UNL1     0.0016
     19 C         5.752905   2.530913   -6.131739 C.3        1 UNL1     0.0026
     20 N         6.022553   1.152871   -5.745323 N.3        1 UNL1     -0.3018
     21 C         6.78643   0.992717   -4.506287 C.3        1 UNL1     0.0026
     22 C         6.008568   1.684181   -3.385259 C.3        1 UNL1     0.0016
     23 C         6.466118   0.332561   -6.854821 C.3        1 UNL1     0.0012
     24 C         5.310075   0.083166   -7.836209 C.3        1 UNL1     -0.0339
     25 C         5.385573   1.028938   -9.046115 C.3        1 UNL1     -0.0615
     26 C         5.296459   -1.373657   -8.265467 C.3        1 UNL1     -0.0615
     27 C         6.345888   8.931491   -2.2396 C.ar        1 UNL1     0.1347
     28 C         5.387428   9.201992   -1.27927 C.ar        1 UNL1     0.0342
     29 C         4.68553   8.068119   -0.81793 C.ar        1 UNL1     0.1435
     30 C         4.904094   6.785731   -1.322836 C.ar        1 UNL1     0.0774
     31 O         3.645009   8.182627   0.036009 O.3        1 UNL1     -0.4436
     32 C         2.922654   6.950093   -0.105182 C.3        1 UNL1     0.3143
     33 C         3.935201   5.95622   -0.637327 C.2        1 UNL1     0.2504
     34 C         4.941479   10.568538   -0.839062 C.3        1 UNL1     -0.0327
     35 O         2.562444   6.514233   1.211452 O.2        1 UNL1     -0.4528
     36 C         -0.68175   4.58345   0.817278 C.3        1 UNL1     0.0854
     37 C         -0.988118   3.322565   -0.079287 C.3        1 UNL1     0.0236
     38 C         -1.58891   2.062216   0.709581 C.3        1 UNL1     0.1131
     39 C         -0.862776   1.531581   2.010898 C.3        1 UNL1     0.0200
     40 C         0.798365   1.385235   2.051324 C.3        1 UNL1     0.0661
     41 C         1.756779   0.615339   0.88243 C.3        1 UNL1     0.0091
     42 C         3.464268   0.976766   0.317403 C.3        1 UNL1     0.0661
     43 C         7.499049   7.454686   -3.899997 C.2        1 UNL1     0.2131
     44 O         7.899022   8.352201   -4.619181 O.2        1 UNL1     -0.2851
     45 O         7.158441   9.965963   -2.699015 O.3        1 UNL1     -0.5056
     46 O         3.950659   4.752745   -0.505944 O.2        1 UNL1     -0.2836
     47 C         5.565127   1.317544   1.926153 C.3        1 UNL1     -0.0566
     48 O         3.912173   -0.434519   0.399688 O.3        1 UNL1     -0.3909
     49 C         0.921865   0.382529   -0.35701 C.3        1 UNL1     -0.0577
     50 O         1.39936   2.603001   2.44321 O.3        1 UNL1     -0.3910
     51 O         -0.805245   4.394549   2.208858 O.3        1 UNL1     -0.3753
     52 C         0.055688   3.160986   -1.232245 C.3        1 UNL1     -0.0564
     53 O         -2.192472   1.02307   -0.189427 O.3        1 UNL1     -0.4608
     54 C         -2.427362   -0.283391   0.151038 C.2        1 UNL1     0.3042
     55 O         -1.858976   -1.283028   -0.286572 O.2        1 UNL1     -0.2512
     56 C         -3.466932   -0.447969   1.222916 C.3        1 UNL1     0.0332
     57 C         -1.582847   2.201579   3.272157 C.3        1 UNL1     -0.0567
     58 C         1.847043   7.19516   -1.188941 C.3        1 UNL1     0.0210
     59 C         -1.11749   5.57409   2.948488 C.3        1 UNL1     0.0372
     60 C         0.647444   5.211755   0.585679 C.2        1 UNL1     -0.0208
     61 C         1.561027   5.646982   1.454407 C.2        1 UNL1     0.0882
     62 H         4.69288   2.730938   0.574923 H        1 UNL1     0.0365
     63 H         6.339271   3.605447   -0.25866 H        1 UNL1     0.0576
     64 H         8.343513   1.485119   -1.250627 H        1 UNL1     0.0615
     65 H         8.277687   4.602443   -1.439888 H        1 UNL1     0.0622
     66 H         -1.426183   5.330188   0.50704 H        1 UNL1     0.0645
     67 H         -1.853817   3.632045   -0.690309 H        1 UNL1     0.0362
     68 H         -2.535587   2.499745   1.061565 H        1 UNL1     0.0741
     69 H         -1.194704   0.520749   2.206989 H        1 UNL1     0.0359
     70 H         0.910252   0.725306   2.932819 H        1 UNL1     0.0600
     71 H         1.800067   -0.405626   1.30988 H        1 UNL1     0.0348
     72 H         3.359119   1.465532   1.296876 H        1 UNL1     0.0602
     73 H         0.764919   5.408408   -0.451035 H        1 UNL1     0.0628
     74 H         1.543912   5.436883   2.524361 H        1 UNL1     0.1022
     75 H         10.936712   2.243254   -3.45981 H        1 UNL1     0.0279
     76 H         10.810647   3.457413   -4.669448 H        1 UNL1     0.0279
     77 H         11.917508   3.634059   -3.248549 H        1 UNL1     0.0279
     78 H         9.066252   4.797771   -5.027751 H        1 UNL1     0.1553
     79 H         7.787088   3.326821   -4.672408 H        1 UNL1     0.1484
     80 H         4.03748   2.725588   -4.808231 H        1 UNL1     0.0317
     81 H         4.772681   4.252665   -5.274534 H        1 UNL1     0.0317
     82 H         6.683708   3.061622   -6.380469 H        1 UNL1     0.0428
     83 H         5.127333   2.585903   -7.02319 H        1 UNL1     0.0428
     84 H         6.906386   -0.050133   -4.196633 H        1 UNL1     0.0428
     85 H         7.816654   1.360182   -4.610814 H        1 UNL1     0.0428
     86 H         6.525323   1.434034   -2.477305 H        1 UNL1     0.0317
     87 H         5.028949   1.207098   -3.259427 H        1 UNL1     0.0317
     88 H         7.262187   0.873684   -7.382793 H        1 UNL1     0.0429
     89 H         6.898418   -0.613244   -6.503617 H        1 UNL1     0.0429
     90 H         4.35773   0.252167   -7.319788 H        1 UNL1     0.0308
     91 H         6.34028   0.927928   -9.570933 H        1 UNL1     0.0233
     92 H         4.569525   0.828771   -9.744405 H        1 UNL1     0.0233
     93 H         5.290495   2.083081   -8.758752 H        1 UNL1     0.0233
     94 H         4.603882   -1.514363   -9.102351 H        1 UNL1     0.0233
     95 H         6.293656   -1.674253   -8.598936 H        1 UNL1     0.0233
     96 H         4.986011   -2.028178   -7.446204 H        1 UNL1     0.0233
     97 H         4.142191   10.519676   -0.10559 H        1 UNL1     0.0280
     98 H         5.75233   11.134945   -0.36266 H        1 UNL1     0.0280
     99 H         4.576454   11.136172   -1.710637 H        1 UNL1     0.0280
     100 H         6.691635   10.717161   -3.0206 H        1 UNL1     0.2922
     101 H         4.699218   0.89602   2.436227 H        1 UNL1     0.0236
     102 H         6.02769   2.119582   2.500395 H        1 UNL1     0.0236
     103 H         6.311795   0.505954   1.925081 H        1 UNL1     0.0236
     104 H         4.326704   -0.561827   1.275432 H        1 UNL1     0.2098
     105 H         0.709375   1.281163   -0.930696 H        1 UNL1     0.0234
     106 H         1.290532   -0.406022   -1.012905 H        1 UNL1     0.0234
     107 H         0.0   -0.0   0.0 H        1 UNL1     0.0234
     108 H         1.215806   3.256308   1.740882 H        1 UNL1     0.2098
     109 H         1.082113   3.059593   -0.852926 H        1 UNL1     0.0234
     110 H         -0.170843   2.32603   -1.904016 H        1 UNL1     0.0234
     111 H         0.068194   4.038215   -1.892744 H        1 UNL1     0.0234
     112 H         -3.590731   -1.508661   1.461565 H        1 UNL1     0.0342
     113 H         -3.229284   0.12826   2.115847 H        1 UNL1     0.0342
     114 H         -4.42436   -0.076706   0.832199 H        1 UNL1     0.0342
     115 H         -2.652574   1.953854   3.310932 H        1 UNL1     0.0234
     116 H         -1.146043   1.922112   4.232963 H        1 UNL1     0.0234
     117 H         -1.620924   3.303429   3.222964 H        1 UNL1     0.0234
     118 H         0.945795   7.681322   -0.77614 H        1 UNL1     0.0309
     119 H         2.215849   7.783812   -2.034916 H        1 UNL1     0.0309
     120 H         1.458902   6.263204   -1.614276 H        1 UNL1     0.0309
     121 H         -0.279166   6.261926   2.841473 H        1 UNL1     0.0524
     122 H         -2.01633   6.083757   2.563309 H        1 UNL1     0.0524
     123 H         -1.271604   5.331094   3.996007 H        1 UNL1     0.0524
@<TRIPOS>BOND
     1     1     2    1
     2     1    42    1
     3     2     3    2
     4     3     4    1
     5     4     5    2
     6     5     7    1
     7     6    75    1
     8     6    76    1
     9     6    77    1
    10     7     9   am
    11     9    10    1
    12    10    11    2
    13    10    43    1
    14    11    14    1
    15    11    15    1
    16    12    13   ar
    17    12    27   ar
    18    12    43    1
    19    13    14    1
    20    13    30   ar
    21    14    17    2
    22    15    16    1
    23    16    17    1
    24    16    18    1
    25    16    22    1
    26    18    19    1
    27    19    20    1
    28    20    21    1
    29    21    22    1
    30    23    24    1
    31    23    88    1
    32    23    89    1
    33    24    25    1
    34    24    26    1
    35    24    90    1
    36    25    91    1
    37    25    92    1
    38    25    93    1
    39    26    94    1
    40    26    95    1
    41    26    96    1
    42    27    28   ar
    43    28    29   ar
    44    29    30   ar
    45    29    31    1
    46    30    33    1
    47    31    32    1
    48    32    33    1
    49    32    35    1
    50    34    97    1
    51    34    98    1
    52    34    99    1
    53    35    61    1
    54    36    37    1
    55    36    60    1
    56    37    38    1
    57    38    39    1
    58    39    40    1
    59    40    41    1
    60    41    42    1
    61    45   100    1
    62    47   101    1
    63    47   102    1
    64    47   103    1
    65    48   104    1
    66    49   105    1
    67    49   106    1
    68    49   107    1
    69    50   108    1
    70    51    59    1
    71    52   109    1
    72    52   110    1
    73    52   111    1
    74    53    54    1
    75    54    55    2
    76    54    56    1
    77    56   112    1
    78    56   113    1
    79    56   114    1
    80    57   115    1
    81    57   116    1
    82    57   117    1
    83    58   118    1
    84    58   119    1
    85    58   120    1
    86    59   121    1
    87    59   122    1
    88    59   123    1
    89    60    61    2
    90     1    47    1
    91     1    62    1
    92     2    63    1
    93     3    64    1
    94     4    65    1
    95     5     6    1
    96     7     8    2
    97     9    78    1
    98    15    79    1
    99    18    80    1
   100    18    81    1
   101    19    82    1
   102    19    83    1
   103    20    23    1
   104    21    84    1
   105    21    85    1
   106    22    86    1
   107    22    87    1
   108    27    45    1
   109    28    34    1
   110    32    58    1
   111    33    46    2
   112    36    51    1
   113    36    66    1
   114    37    52    1
   115    37    67    1
   116    38    53    1
   117    38    68    1
   118    42    48    1
   119    42    72    1
   120    43    44    2
   121    60    73    1
   122    61    74    1
   123    39    69    1
   124    39    57    1
   125    40    70    1
   126    40    50    1
   127    41    71    1
   128    41    49    1
