@<TRIPOS>MOLECULE
*****
 123 128 0 0 0
SMALL
GASTEIGER

@<TRIPOS>ATOM
     1 C         -0.378723   -2.240499   -4.395699 C.3        1 UNL1     0.0009
     2 C         -1.775844   -2.70634   -5.521792 C.2        1 UNL1     -0.0787
     3 C         -2.56552   -3.718387   -6.191283 C.2        1 UNL1     -0.0649
     4 C         -3.965074   -3.501298   -7.118903 C.2        1 UNL1     -0.0542
     5 C         -5.117564   -4.133631   -7.647105 C.2        1 UNL1     0.0115
     6 C         -5.806022   -5.508347   -7.869602 C.3        1 UNL1     -0.0348
     7 C         -6.344197   -3.224427   -8.142796 C.2        1 UNL1     0.2441
     8 O         -6.563092   -2.988302   -9.322989 O.2        1 UNL1     -0.2702
     9 N         -7.299308   -2.93357   -7.153192 N.am        1 UNL1     -0.2772
     10 C         -6.946518   -1.795434   -6.465073 C.2        1 UNL1     0.1049
     11 C         -6.075529   -1.95425   -5.485085 C.2        1 UNL1     0.0801
     12 C         -6.204452   0.570832   -6.792882 C.ar        1 UNL1     0.0753
     13 C         -5.144509   0.283029   -5.875113 C.ar        1 UNL1     0.0305
     14 C         -5.12453   -0.950176   -5.091622 C.2        1 UNL1     0.0924
     15 N         -5.625721   -3.079159   -4.903035 N.pl3        1 UNL1     -0.3170
     16 C         -4.821091   -2.697659   -3.772866 C.3        1 UNL1     0.1275
     17 N         -4.285349   -1.333652   -4.133683 N.2        1 UNL1     -0.2557
     18 C         -5.767665   -2.483049   -2.595734 C.3        1 UNL1     0.0016
     19 C         -6.580784   -3.750853   -2.38812 C.3        1 UNL1     0.0026
     20 N         -5.667277   -4.855632   -2.131221 N.3        1 UNL1     -0.3018
     21 C         -4.67695   -5.100628   -3.181743 C.3        1 UNL1     0.0026
     22 C         -3.86854   -3.815811   -3.370458 C.3        1 UNL1     0.0016
     23 C         -6.338809   -6.037224   -1.627707 C.3        1 UNL1     0.0012
     24 C         -7.807284   -5.723846   -1.300395 C.3        1 UNL1     -0.0339
     25 C         -8.76659   -6.549556   -2.173317 C.3        1 UNL1     -0.0615
     26 C         -8.069232   -5.943118   0.179498 C.3        1 UNL1     -0.0615
     27 C         -6.280569   1.799057   -7.445406 C.ar        1 UNL1     0.1347
     28 C         -5.380881   2.828116   -7.231748 C.ar        1 UNL1     0.0342
     29 C         -4.318384   2.504688   -6.361312 C.ar        1 UNL1     0.1435
     30 C         -4.209124   1.265894   -5.728326 C.ar        1 UNL1     0.0774
     31 O         -3.422306   3.435488   -5.96677 O.3        1 UNL1     -0.4436
     32 C         -2.831185   2.88895   -4.77818 C.3        1 UNL1     0.3143
     33 C         -3.038837   1.391718   -4.884903 C.2        1 UNL1     0.2504
     34 C         -5.538792   4.24845   -7.698454 C.3        1 UNL1     -0.0327
     35 O         -1.419518   3.121156   -4.858983 O.2        1 UNL1     -0.4528
     36 C         -0.215683   3.471032   -1.276183 C.3        1 UNL1     0.0854
     37 C         -0.348719   2.455538   -0.076767 C.3        1 UNL1     0.0236
     38 C         1.034669   2.063126   0.633157 C.3        1 UNL1     0.1131
     39 C         2.256921   1.575381   -0.24461 C.3        1 UNL1     0.0200
     40 C         2.023139   0.490392   -1.489834 C.3        1 UNL1     0.0661
     41 C         1.172906   -0.97379   -1.385505 C.3        1 UNL1     0.0091
     42 C         0.172706   -1.861188   -2.641502 C.3        1 UNL1     0.0661
     43 C         -7.269896   -0.448702   -6.959133 C.2        1 UNL1     0.2131
     44 O         -8.385485   -0.194607   -7.375826 O.2        1 UNL1     -0.2851
     45 O         -7.318058   1.981843   -8.357351 O.3        1 UNL1     -0.5056
     46 O         -2.374702   0.50249   -4.401113 O.2        1 UNL1     -0.2836
     47 C         0.981719   -2.419374   -5.121772 C.3        1 UNL1     -0.0566
     48 O         0.802514   -3.177758   -2.378632 O.3        1 UNL1     -0.3909
     49 C         0.37739   -0.985571   -0.099227 C.3        1 UNL1     -0.0577
     50 O         1.680098   1.164289   -2.683948 O.3        1 UNL1     -0.3910
     51 O         1.09927   3.770642   -1.686747 O.3        1 UNL1     -0.3753
     52 C         -1.482317   1.407491   -0.324763 C.3        1 UNL1     -0.0564
     53 O         0.857631   1.391704   1.963637 O.3        1 UNL1     -0.4608
     54 C         1.824904   1.267048   2.926328 C.2        1 UNL1     0.3042
     55 O         1.76972   0.599671   3.958511 O.2        1 UNL1     -0.2512
     56 C         3.092631   2.00589   2.604313 C.3        1 UNL1     0.0332
     57 C         3.184748   2.846919   -0.528342 C.3        1 UNL1     -0.0567
     58 C         -3.66327   3.424546   -3.589778 C.3        1 UNL1     0.0210
     59 C         1.757799   2.724424   -2.39923 C.3        1 UNL1     0.0372
     60 C         -0.973874   3.099402   -2.501825 C.2        1 UNL1     -0.0208
     61 C         -0.607891   3.119879   -3.784159 C.2        1 UNL1     0.0882
     62 H         -0.660252   -1.187147   -4.513606 H        1 UNL1     0.0365
     63 H         -2.116317   -1.719652   -5.842719 H        1 UNL1     0.0576
     64 H         -2.403882   -4.783328   -6.009953 H        1 UNL1     0.0615
     65 H         -3.988362   -2.424542   -7.307415 H        1 UNL1     0.0622
     66 H         -0.676838   4.397468   -0.905913 H        1 UNL1     0.0645
     67 H         -0.84421   3.041411   0.716833 H        1 UNL1     0.0362
     68 H         1.329196   3.050424   1.020478 H        1 UNL1     0.0741
     69 H         2.958648   1.055706   0.39408 H        1 UNL1     0.0359
     70 H         3.066194   0.156741   -1.650377 H        1 UNL1     0.0600
     71 H         2.003403   -1.66202   -1.133369 H        1 UNL1     0.0348
     72 H         0.815897   -1.166806   -3.201372 H        1 UNL1     0.0602
     73 H         -1.984383   2.903617   -2.241462 H        1 UNL1     0.0628
     74 H         0.417239   3.254801   -4.130776 H        1 UNL1     0.1022
     75 H         -5.514587   -6.227298   -7.066352 H        1 UNL1     0.0279
     76 H         -6.892166   -5.521757   -7.813204 H        1 UNL1     0.0279
     77 H         -5.439997   -6.026836   -8.767876 H        1 UNL1     0.0279
     78 H         -7.339571   -3.697444   -6.481662 H        1 UNL1     0.1553
     79 H         -6.096848   -3.963221   -4.961391 H        1 UNL1     0.1484
     80 H         -5.179093   -2.234256   -1.704414 H        1 UNL1     0.0317
     81 H         -6.433519   -1.632931   -2.779007 H        1 UNL1     0.0317
     82 H         -7.228287   -3.965135   -3.2511 H        1 UNL1     0.0428
     83 H         -7.250211   -3.575349   -1.545436 H        1 UNL1     0.0428
     84 H         -3.953733   -5.882257   -2.929108 H        1 UNL1     0.0428
     85 H         -5.144796   -5.459601   -4.108876 H        1 UNL1     0.0428
     86 H         -3.073047   -4.070813   -4.045849 H        1 UNL1     0.0317
     87 H         -3.342082   -3.564506   -2.441597 H        1 UNL1     0.0317
     88 H         -6.31171   -6.805534   -2.411454 H        1 UNL1     0.0429
     89 H         -5.817868   -6.450234   -0.754313 H        1 UNL1     0.0429
     90 H         -7.996912   -4.659578   -1.483667 H        1 UNL1     0.0308
     91 H         -8.338745   -7.525697   -2.420705 H        1 UNL1     0.0233
     92 H         -9.722644   -6.695416   -1.665091 H        1 UNL1     0.0233
     93 H         -8.998045   -6.053568   -3.123717 H        1 UNL1     0.0233
     94 H         -7.408776   -5.306696   0.77833 H        1 UNL1     0.0233
     95 H         -9.102436   -5.676956   0.419513 H        1 UNL1     0.0233
     96 H         -7.897593   -6.984727   0.465084 H        1 UNL1     0.0233
     97 H         -5.55874   4.949835   -6.869666 H        1 UNL1     0.0280
     98 H         -4.70852   4.567296   -8.342071 H        1 UNL1     0.0280
     99 H         -6.482112   4.349777   -8.259682 H        1 UNL1     0.0280
     100 H         -8.006885   2.548995   -8.058223 H        1 UNL1     0.2922
     101 H         1.020171   -1.769678   -5.995885 H        1 UNL1     0.0236
     102 H         1.200253   -3.456672   -5.373244 H        1 UNL1     0.0236
     103 H         1.830657   -2.097085   -4.49597 H        1 UNL1     0.0236
     104 H         0.418702   -3.819255   -3.008029 H        1 UNL1     0.2098
     105 H         -0.46929   -1.667437   -0.101039 H        1 UNL1     0.0234
     106 H         0.972666   -1.124842   0.803091 H        1 UNL1     0.0234
     107 H         0.0   0.0   0.0 H        1 UNL1     0.0234
     108 H         1.923083   2.102978   -2.567377 H        1 UNL1     0.2098
     109 H         -2.222057   1.394717   0.487846 H        1 UNL1     0.0234
     110 H         -1.993617   1.545281   -1.283579 H        1 UNL1     0.0234
     111 H         -1.083799   0.38569   -0.380017 H        1 UNL1     0.0234
     112 H         3.930089   1.303453   2.553416 H        1 UNL1     0.0342
     113 H         3.00874   2.581221   1.683552 H        1 UNL1     0.0342
     114 H         3.294868   2.712441   3.421045 H        1 UNL1     0.0342
     115 H         4.245529   2.570233   -0.601668 H        1 UNL1     0.0234
     116 H         2.924155   3.392652   -1.437362 H        1 UNL1     0.0234
     117 H         3.209883   3.568228   0.306536 H        1 UNL1     0.0234
     118 H         -3.542542   2.802708   -2.685483 H        1 UNL1     0.0309
     119 H         -3.436217   4.466098   -3.341144 H        1 UNL1     0.0309
     120 H         -4.74137   3.386398   -3.780439 H        1 UNL1     0.0309
     121 H         2.755567   3.07843   -2.657096 H        1 UNL1     0.0524
     122 H         1.876125   1.813168   -1.789601 H        1 UNL1     0.0524
     123 H         1.203606   2.47648   -3.300056 H        1 UNL1     0.0524
@<TRIPOS>BOND
     1     1     2    1
     2     1    42    1
     3     2     3    2
     4     3     4    1
     5     4     5    2
     6     5     7    1
     7     6    75    1
     8     6    76    1
     9     6    77    1
    10     7     9   am
    11     9    10    1
    12    10    11    2
    13    10    43    1
    14    11    14    1
    15    11    15    1
    16    12    13   ar
    17    12    27   ar
    18    12    43    1
    19    13    14    1
    20    13    30   ar
    21    14    17    2
    22    15    16    1
    23    16    17    1
    24    16    18    1
    25    16    22    1
    26    18    19    1
    27    19    20    1
    28    20    21    1
    29    21    22    1
    30    23    24    1
    31    23    88    1
    32    23    89    1
    33    24    25    1
    34    24    26    1
    35    24    90    1
    36    25    91    1
    37    25    92    1
    38    25    93    1
    39    26    94    1
    40    26    95    1
    41    26    96    1
    42    27    28   ar
    43    28    29   ar
    44    29    30   ar
    45    29    31    1
    46    30    33    1
    47    31    32    1
    48    32    33    1
    49    32    35    1
    50    34    97    1
    51    34    98    1
    52    34    99    1
    53    35    61    1
    54    36    37    1
    55    36    60    1
    56    37    38    1
    57    38    39    1
    58    39    40    1
    59    40    41    1
    60    41    42    1
    61    45   100    1
    62    47   101    1
    63    47   102    1
    64    47   103    1
    65    48   104    1
    66    49   105    1
    67    49   106    1
    68    49   107    1
    69    50   108    1
    70    51    59    1
    71    52   109    1
    72    52   110    1
    73    52   111    1
    74    53    54    1
    75    54    55    2
    76    54    56    1
    77    56   112    1
    78    56   113    1
    79    56   114    1
    80    57   115    1
    81    57   116    1
    82    57   117    1
    83    58   118    1
    84    58   119    1
    85    58   120    1
    86    59   121    1
    87    59   122    1
    88    59   123    1
    89    60    61    2
    90     1    47    1
    91     1    62    1
    92     2    63    1
    93     3    64    1
    94     4    65    1
    95     5     6    1
    96     7     8    2
    97     9    78    1
    98    15    79    1
    99    18    80    1
   100    18    81    1
   101    19    82    1
   102    19    83    1
   103    20    23    1
   104    21    84    1
   105    21    85    1
   106    22    86    1
   107    22    87    1
   108    27    45    1
   109    28    34    1
   110    32    58    1
   111    33    46    2
   112    36    51    1
   113    36    66    1
   114    37    52    1
   115    37    67    1
   116    38    53    1
   117    38    68    1
   118    42    48    1
   119    42    72    1
   120    43    44    2
   121    60    73    1
   122    61    74    1
   123    39    69    1
   124    39    57    1
   125    40    70    1
   126    40    50    1
   127    41    71    1
   128    41    49    1
