@<TRIPOS>MOLECULE
*****
 123 128 0 0 0
SMALL
GASTEIGER

@<TRIPOS>ATOM
     1 C         2.284191   -1.829333   -4.520614 C.3        1 UNL1     0.0009
     2 C         1.899101   -2.415762   -6.236669 C.2        1 UNL1     -0.0787
     3 C         1.835834   -3.480566   -7.215564 C.2        1 UNL1     -0.0649
     4 C         1.211334   -3.41295   -8.787756 C.2        1 UNL1     -0.0542
     5 C         0.708528   -4.174967   -9.87108 C.2        1 UNL1     0.0115
     6 C         0.535117   -5.618394   -10.418593 C.3        1 UNL1     -0.0348
     7 C         -0.151011   -3.436058   -11.007828 C.2        1 UNL1     0.2441
     8 O         0.308914   -3.137911   -12.101493 O.2        1 UNL1     -0.2702
     9 N         -1.534439   -3.3888   -10.762788 N.am        1 UNL1     -0.2772
     10 C         -1.853575   -2.271983   -10.025092 C.2        1 UNL1     0.1049
     11 C         -1.691796   -2.371925   -8.718164 C.2        1 UNL1     0.0801
     12 C         -1.500835   0.202187   -9.918363 C.ar        1 UNL1     0.0753
     13 C         -1.129107   0.011194   -8.54944 C.ar        1 UNL1     0.0305
     14 C         -1.339806   -1.2653   -7.870307 C.2        1 UNL1     0.0924
     15 N         -1.463189   -3.455434   -7.956407 N.pl3        1 UNL1     -0.3170
     16 C         -1.538352   -3.047702   -6.578597 C.3        1 UNL1     0.1275
     17 N         -1.150132   -1.58936   -6.594401 N.2        1 UNL1     -0.2557
     18 C         -3.008814   -3.090122   -6.17407 C.3        1 UNL1     0.0016
     19 C         -3.548012   -4.485404   -6.446178 C.3        1 UNL1     0.0026
     20 N         -2.76609   -5.44655   -5.680786 N.3        1 UNL1     -0.3018
     21 C         -1.327865   -5.437821   -5.956111 C.3        1 UNL1     0.0026
     22 C         -0.806354   -4.02819   -5.671751 C.3        1 UNL1     0.0016
     23 C         -3.377662   -6.759649   -5.63189 C.3        1 UNL1     0.0012
     24 C         -4.642512   -6.732569   -4.759434 C.3        1 UNL1     -0.0339
     25 C         -5.888135   -7.142963   -5.561966 C.3        1 UNL1     -0.0615
     26 C         -4.450534   -7.612496   -3.536465 C.3        1 UNL1     -0.0615
     27 C         -1.409244   1.453507   -10.52328 C.ar        1 UNL1     0.1347
     28 C         -0.999541   2.591858   -9.852198 C.ar        1 UNL1     0.0342
     29 C         -0.592158   2.37031   -8.519487 C.ar        1 UNL1     0.1435
     30 C         -0.644153   1.115611   -7.911008 C.ar        1 UNL1     0.0774
     31 O         -0.271393   3.395952   -7.700845 O.3        1 UNL1     -0.4436
     32 C         -0.382722   2.851831   -6.377059 C.3        1 UNL1     0.3143
     33 C         -0.21645   1.355448   -6.548541 C.2        1 UNL1     0.2504
     34 C         -1.114686   4.002949   -10.357829 C.3        1 UNL1     -0.0327
     35 O         0.749027   3.314423   -5.629795 O.2        1 UNL1     -0.4528
     36 C         -0.409461   3.544961   -2.022462 C.3        1 UNL1     0.0854
     37 C         -1.020492   2.422201   -1.098571 C.3        1 UNL1     0.0236
     38 C         -0.252226   2.198275   0.291166 C.3        1 UNL1     0.1131
     39 C         1.315964   1.990864   0.296827 C.3        1 UNL1     0.0200
     40 C         2.040315   0.99326   -0.8268 C.3        1 UNL1     0.0661
     41 C         1.566288   -0.592222   -1.199839 C.3        1 UNL1     0.0091
     42 C         1.649011   -1.518062   -2.781414 C.3        1 UNL1     0.0661
     43 C         -2.071849   -0.957561   -10.647189 C.2        1 UNL1     0.2131
     44 O         -2.769546   -0.851655   -11.63953 O.2        1 UNL1     -0.2851
     45 O         -1.747387   1.544364   -11.871925 O.3        1 UNL1     -0.5056
     46 O         0.197089   0.54661   -5.748154 O.2        1 UNL1     -0.2836
     47 C         3.819792   -1.723817   -4.318681 C.3        1 UNL1     -0.0566
     48 O         2.239254   -2.733645   -2.170606 O.3        1 UNL1     -0.3909
     49 C         0.194765   -0.842266   -0.613412 C.3        1 UNL1     -0.0577
     50 O         2.329896   1.70303   -2.014273 O.3        1 UNL1     -0.3910
     51 O         0.822148   4.086537   -1.601433 O.3        1 UNL1     -0.3753
     52 C         -1.593853   1.230454   -1.932805 C.3        1 UNL1     -0.0564
     53 O         -1.035872   1.395481   1.288034 O.3        1 UNL1     -0.4608
     54 C         -0.565122   0.947871   2.49467 C.2        1 UNL1     0.3042
     55 O         -0.200852   -0.192775   2.777641 O.2        1 UNL1     -0.2512
     56 C         -0.451163   2.026996   3.533523 C.3        1 UNL1     0.0332
     57 C         1.989787   3.414822   0.573378 C.3        1 UNL1     -0.0567
     58 C         -1.826287   3.14248   -5.904646 C.3        1 UNL1     0.0210
     59 C         1.070508   5.421853   -2.038598 C.3        1 UNL1     0.0372
     60 C         -0.244193   3.162601   -3.451325 C.2        1 UNL1     -0.0208
     61 C         0.780464   3.35168   -4.283834 C.2        1 UNL1     0.0882
     62 H         1.936491   -0.828892   -4.805105 H        1 UNL1     0.0365
     63 H         1.632925   -1.472944   -6.719073 H        1 UNL1     0.0576
     64 H         2.053477   -4.517151   -6.948673 H        1 UNL1     0.0615
     65 H         1.106164   -2.341851   -8.98055 H        1 UNL1     0.0622
     66 H         -1.157875   4.349809   -2.01054 H        1 UNL1     0.0645
     67 H         -1.977719   2.85036   -0.753673 H        1 UNL1     0.0362
     68 H         -0.417942   3.183206   0.753736 H        1 UNL1     0.0741
     69 H         1.603758   1.53814   1.236307 H        1 UNL1     0.0359
     70 H         3.025821   0.846969   -0.344683 H        1 UNL1     0.0600
     71 H         2.2093   -1.156772   -0.496435 H        1 UNL1     0.0348
     72 H         2.358434   -0.683723   -2.880975 H        1 UNL1     0.0602
     73 H         -1.165233   2.785024   -3.820608 H        1 UNL1     0.0628
     74 H         1.773702   3.679171   -3.974856 H        1 UNL1     0.1022
     75 H         1.491096   -6.188741   -10.330039 H        1 UNL1     0.0279
     76 H         -0.168485   -6.256846   -9.88907 H        1 UNL1     0.0279
     77 H         0.367416   -5.643735   -11.505301 H        1 UNL1     0.0279
     78 H         -1.813882   -4.203939   -10.220999 H        1 UNL1     0.1553
     79 H         -1.646015   -4.395525   -8.255969 H        1 UNL1     0.1484
     80 H         -3.095414   -2.827175   -5.112879 H        1 UNL1     0.0317
     81 H         -3.589154   -2.345792   -6.729795 H        1 UNL1     0.0317
     82 H         -3.530986   -4.726342   -7.519291 H        1 UNL1     0.0428
     83 H         -4.598088   -4.492949   -6.152351 H        1 UNL1     0.0428
     84 H         -0.753919   -6.111523   -5.312276 H        1 UNL1     0.0428
     85 H         -1.104364   -5.786582   -6.973819 H        1 UNL1     0.0428
     86 H         0.262751   -4.092856   -5.754336 H        1 UNL1     0.0317
     87 H         -0.964562   -3.775997   -4.616068 H        1 UNL1     0.0317
     88 H         -3.66385   -7.041379   -6.653663 H        1 UNL1     0.0429
     89 H         -2.667509   -7.517301   -5.276332 H        1 UNL1     0.0429
     90 H         -4.793046   -5.716235   -4.376526 H        1 UNL1     0.0308
     91 H         -5.707881   -7.074124   -6.63894 H        1 UNL1     0.0233
     92 H         -6.189049   -8.163344   -5.313204 H        1 UNL1     0.0233
     93 H         -6.754265   -6.506768   -5.34308 H        1 UNL1     0.0233
     94 H         -5.422726   -7.911218   -3.129717 H        1 UNL1     0.0233
     95 H         -3.906625   -8.520595   -3.811205 H        1 UNL1     0.0233
     96 H         -3.89367   -7.090893   -2.753011 H        1 UNL1     0.0233
     97 H         -2.138333   4.364183   -10.328061 H        1 UNL1     0.0280
     98 H         -0.529425   4.708189   -9.753377 H        1 UNL1     0.0280
     99 H         -0.761409   4.051199   -11.400884 H        1 UNL1     0.0280
     100 H         -2.672405   1.538213   -12.044914 H        1 UNL1     0.2922
     101 H         4.123256   -0.677496   -4.346599 H        1 UNL1     0.0236
     102 H         4.387382   -2.33316   -5.021194 H        1 UNL1     0.0236
     103 H         4.131874   -2.079234   -3.32245 H        1 UNL1     0.0236
     104 H         2.876113   -2.441867   -1.489249 H        1 UNL1     0.2098
     105 H         -0.602763   -0.909626   -1.349091 H        1 UNL1     0.0234
     106 H         0.141844   -1.682238   0.0791 H        1 UNL1     0.0234
     107 H         0.0   0.0   0.0 H        1 UNL1     0.0234
     108 H         3.299469   1.81146   -2.058314 H        1 UNL1     0.2098
     109 H         -1.622509   1.451721   -3.008877 H        1 UNL1     0.0234
     110 H         -1.056576   0.290611   -1.76616 H        1 UNL1     0.0234
     111 H         -2.629233   0.999079   -1.649253 H        1 UNL1     0.0234
     112 H         -0.051452   1.60874   4.462306 H        1 UNL1     0.0342
     113 H         0.154362   2.864212   3.189644 H        1 UNL1     0.0342
     114 H         -1.459632   2.40946   3.742994 H        1 UNL1     0.0342
     115 H         2.922176   3.320938   1.146985 H        1 UNL1     0.0234
     116 H         2.216706   3.981854   -0.331625 H        1 UNL1     0.0234
     117 H         1.393702   4.061552   1.239985 H        1 UNL1     0.0234
     118 H         -1.862839   3.957184   -5.160383 H        1 UNL1     0.0309
     119 H         -2.508374   3.378354   -6.727642 H        1 UNL1     0.0309
     120 H         -2.273445   2.295034   -5.373618 H        1 UNL1     0.0309
     121 H         2.150567   5.562082   -2.072733 H        1 UNL1     0.0524
     122 H         0.679149   5.609819   -3.052277 H        1 UNL1     0.0524
     123 H         0.621862   6.132317   -1.350085 H        1 UNL1     0.0524
@<TRIPOS>BOND
     1     1     2    1
     2     1    42    1
     3     2     3    2
     4     3     4    1
     5     4     5    2
     6     5     7    1
     7     6    75    1
     8     6    76    1
     9     6    77    1
    10     7     9   am
    11     9    10    1
    12    10    11    2
    13    10    43    1
    14    11    14    1
    15    11    15    1
    16    12    13   ar
    17    12    27   ar
    18    12    43    1
    19    13    14    1
    20    13    30   ar
    21    14    17    2
    22    15    16    1
    23    16    17    1
    24    16    18    1
    25    16    22    1
    26    18    19    1
    27    19    20    1
    28    20    21    1
    29    21    22    1
    30    23    24    1
    31    23    88    1
    32    23    89    1
    33    24    25    1
    34    24    26    1
    35    24    90    1
    36    25    91    1
    37    25    92    1
    38    25    93    1
    39    26    94    1
    40    26    95    1
    41    26    96    1
    42    27    28   ar
    43    28    29   ar
    44    29    30   ar
    45    29    31    1
    46    30    33    1
    47    31    32    1
    48    32    33    1
    49    32    35    1
    50    34    97    1
    51    34    98    1
    52    34    99    1
    53    35    61    1
    54    36    37    1
    55    36    60    1
    56    37    38    1
    57    38    39    1
    58    39    40    1
    59    40    41    1
    60    41    42    1
    61    45   100    1
    62    47   101    1
    63    47   102    1
    64    47   103    1
    65    48   104    1
    66    49   105    1
    67    49   106    1
    68    49   107    1
    69    50   108    1
    70    51    59    1
    71    52   109    1
    72    52   110    1
    73    52   111    1
    74    53    54    1
    75    54    55    2
    76    54    56    1
    77    56   112    1
    78    56   113    1
    79    56   114    1
    80    57   115    1
    81    57   116    1
    82    57   117    1
    83    58   118    1
    84    58   119    1
    85    58   120    1
    86    59   121    1
    87    59   122    1
    88    59   123    1
    89    60    61    2
    90     1    47    1
    91     1    62    1
    92     2    63    1
    93     3    64    1
    94     4    65    1
    95     5     6    1
    96     7     8    2
    97     9    78    1
    98    15    79    1
    99    18    80    1
   100    18    81    1
   101    19    82    1
   102    19    83    1
   103    20    23    1
   104    21    84    1
   105    21    85    1
   106    22    86    1
   107    22    87    1
   108    27    45    1
   109    28    34    1
   110    32    58    1
   111    33    46    2
   112    36    51    1
   113    36    66    1
   114    37    52    1
   115    37    67    1
   116    38    53    1
   117    38    68    1
   118    42    48    1
   119    42    72    1
   120    43    44    2
   121    60    73    1
   122    61    74    1
   123    39    69    1
   124    39    57    1
   125    40    70    1
   126    40    50    1
   127    41    71    1
   128    41    49    1
