@<TRIPOS>MOLECULE
*****
 123 128 0 0 0
SMALL
GASTEIGER

@<TRIPOS>ATOM
     1 C         4.021846   3.170722   -1.945001 C.3        1 UNL1     0.0009
     2 C         5.469523   3.277717   -3.09818 C.2        1 UNL1     -0.0787
     3 C         6.899658   3.266339   -3.323192 C.2        1 UNL1     -0.0649
     4 C         7.720397   3.298263   -4.80364 C.2        1 UNL1     -0.0542
     5 C         8.946413   3.022186   -5.457662 C.2        1 UNL1     0.0115
     6 C         10.43667   2.648276   -5.228214 C.3        1 UNL1     -0.0348
     7 C         8.959644   2.882878   -7.056852 C.2        1 UNL1     0.2441
     8 O         9.356216   3.770926   -7.798894 O.2        1 UNL1     -0.2702
     9 N         8.732102   1.581247   -7.536573 N.am        1 UNL1     -0.2772
     10 C         7.383629   1.355364   -7.691235 C.2        1 UNL1     0.1049
     11 C         6.724622   0.999228   -6.603532 C.2        1 UNL1     0.0801
     12 C         5.306338   2.34509   -8.672377 C.ar        1 UNL1     0.0753
     13 C         4.693979   2.126515   -7.397289 C.ar        1 UNL1     0.0305
     14 C         5.345243   1.325977   -6.362859 C.2        1 UNL1     0.0924
     15 N         7.185936   0.614368   -5.401201 N.pl3        1 UNL1     -0.3170
     16 C         6.061796   0.169318   -4.621141 C.3        1 UNL1     0.1275
     17 N         4.888715   0.940961   -5.174468 N.2        1 UNL1     -0.2557
     18 C         5.813601   -1.29288   -4.97902 C.3        1 UNL1     0.0016
     19 C         7.094137   -2.076503   -4.738701 C.3        1 UNL1     0.0026
     20 N         7.472556   -1.936531   -3.339332 N.3        1 UNL1     -0.3018
     21 C         7.673425   -0.559204   -2.88437 C.3        1 UNL1     0.0026
     22 C         6.373499   0.208467   -3.130887 C.3        1 UNL1     0.0016
     23 C         8.499758   -2.876207   -2.936209 C.3        1 UNL1     0.0012
     24 C         7.934494   -4.304483   -2.88865 C.3        1 UNL1     -0.0339
     25 C         6.442366   -4.33136   -3.258633 C.3        1 UNL1     -0.0615
     26 C         8.749888   -5.217476   -3.787736 C.3        1 UNL1     -0.0615
     27 C         4.629113   3.005975   -9.694491 C.ar        1 UNL1     0.1347
     28 C         3.326749   3.456757   -9.573279 C.ar        1 UNL1     0.0342
     29 C         2.761389   3.274015   -8.293382 C.ar        1 UNL1     0.1435
     30 C         3.440746   2.64599   -7.248739 C.ar        1 UNL1     0.0774
     31 O         1.464003   3.56018   -8.048626 O.3        1 UNL1     -0.4436
     32 C         1.149948   2.827321   -6.854825 C.3        1 UNL1     0.3143
     33 C         2.480778   2.603944   -6.165474 C.2        1 UNL1     0.2504
     34 C         2.4545   3.944707   -10.696305 C.3        1 UNL1     -0.0327
     35 O         0.383633   3.695717   -6.011082 O.2        1 UNL1     -0.4528
     36 C         -1.907176   1.435544   -3.998147 C.3        1 UNL1     0.0854
     37 C         -1.535923   0.23622   -3.043518 C.3        1 UNL1     0.0236
     38 C         -2.119183   0.352337   -1.5542 C.3        1 UNL1     0.1131
     39 C         -1.897031   1.681244   -0.72539 C.3        1 UNL1     0.0200
     40 C         -0.411529   2.440004   -0.727628 C.3        1 UNL1     0.0661
     41 C         1.084927   1.69555   -0.437769 C.3        1 UNL1     0.0091
     42 C         2.750582   2.070909   -1.108664 C.3        1 UNL1     0.0661
     43 C         6.653548   1.765845   -8.899888 C.2        1 UNL1     0.2131
     44 O         7.109034   1.535063   -10.005333 O.2        1 UNL1     -0.2851
     45 O         5.313182   3.218084   -10.889688 O.3        1 UNL1     -0.5056
     46 O         2.701322   2.448606   -4.985184 O.2        1 UNL1     -0.2836
     47 C         3.874124   4.4905   -1.141044 C.3        1 UNL1     -0.0566
     48 O         3.419189   2.022988   0.214131 O.3        1 UNL1     -0.3909
     49 C         0.906547   0.195564   -0.513368 C.3        1 UNL1     -0.0577
     50 O         -0.304892   3.329757   -1.820648 O.3        1 UNL1     -0.3910
     51 O         -2.548351   2.53285   -3.388027 O.3        1 UNL1     -0.3753
     52 C         -0.102337   -0.316392   -3.334038 C.3        1 UNL1     -0.0564
     53 O         -2.058075   -0.933869   -0.783314 O.3        1 UNL1     -0.4608
     54 C         -1.77981   -1.047055   0.55373 C.2        1 UNL1     0.3042
     55 O         -0.718704   -1.397297   1.068729 O.2        1 UNL1     -0.2512
     56 C         -2.917456   -0.630833   1.442118 C.3        1 UNL1     0.0332
     57 C         -3.19887   2.590962   -0.914602 C.3        1 UNL1     -0.0567
     58 C         0.590809   1.460822   -7.314797 C.3        1 UNL1     0.0210
     59 C         -3.933608   2.668107   -3.702086 C.3        1 UNL1     0.0372
     60 C         -0.771495   1.986237   -4.786898 C.2        1 UNL1     -0.0208
     61 C         -0.414771   3.249579   -5.022396 C.2        1 UNL1     0.0882
     62 H         3.351779   3.254034   -2.809165 H        1 UNL1     0.0365
     63 H         4.962649   3.487962   -4.042292 H        1 UNL1     0.0576
     64 H         7.60483   3.063563   -2.514044 H        1 UNL1     0.0615
     65 H         6.948559   3.584087   -5.5234 H        1 UNL1     0.0622
     66 H         -2.600341   1.000131   -4.73162 H        1 UNL1     0.0645
     67 H         -2.117811   -0.613237   -3.441499 H        1 UNL1     0.0362
     68 H         -3.196919   0.323497   -1.775957 H        1 UNL1     0.0741
     69 H         -2.052393   1.467233   0.323642 H        1 UNL1     0.0359
     70 H         -0.532252   3.098157   0.15403 H        1 UNL1     0.0600
     71 H         1.168662   1.849301   0.655989 H        1 UNL1     0.0348
     72 H         2.148349   2.977209   -1.267571 H        1 UNL1     0.0602
     73 H         -0.283403   1.193167   -5.296854 H        1 UNL1     0.0628
     74 H         -0.824794   4.113925   -4.498922 H        1 UNL1     0.1022
     75 H         10.887469   3.299397   -4.440904 H        1 UNL1     0.0279
     76 H         10.632844   1.648909   -4.846311 H        1 UNL1     0.0279
     77 H         11.072382   2.883621   -6.094345 H        1 UNL1     0.0279
     78 H         9.081109   0.902587   -6.863005 H        1 UNL1     0.1553
     79 H         8.121481   0.288319   -5.24189 H        1 UNL1     0.1484
     80 H         4.988666   -1.675893   -4.366199 H        1 UNL1     0.0317
     81 H         5.500291   -1.392259   -6.023823 H        1 UNL1     0.0317
     82 H         7.905382   -1.744542   -5.403228 H        1 UNL1     0.0428
     83 H         6.895417   -3.115883   -5.001856 H        1 UNL1     0.0428
     84 H         7.878258   -0.476812   -1.812425 H        1 UNL1     0.0428
     85 H         8.548712   -0.095238   -3.359686 H        1 UNL1     0.0428
     86 H         6.511417   1.167763   -2.667509 H        1 UNL1     0.0317
     87 H         5.558004   -0.239184   -2.549792 H        1 UNL1     0.0317
     88 H         9.304425   -2.843467   -3.682355 H        1 UNL1     0.0429
     89 H         8.942928   -2.593444   -1.972664 H        1 UNL1     0.0429
     90 H         8.049799   -4.702795   -1.87363 H        1 UNL1     0.0308
     91 H         6.05621   -5.354854   -3.27978 H        1 UNL1     0.0233
     92 H         5.857606   -3.742024   -2.548458 H        1 UNL1     0.0233
     93 H         6.249419   -3.898057   -4.247498 H        1 UNL1     0.0233
     94 H         9.229956   -4.635207   -4.581672 H        1 UNL1     0.0233
     95 H         9.536048   -5.708463   -3.207351 H        1 UNL1     0.0233
     96 H         8.123019   -5.983881   -4.252092 H        1 UNL1     0.0233
     97 H         1.542926   3.361595   -10.787096 H        1 UNL1     0.0280
     98 H         2.133006   4.984033   -10.549003 H        1 UNL1     0.0280
     99 H         3.005482   3.875151   -11.648501 H        1 UNL1     0.0280
     100 H         6.17232   3.588616   -10.788639 H        1 UNL1     0.2922
     101 H         3.042822   5.072214   -1.53879 H        1 UNL1     0.0236
     102 H         4.795144   5.070793   -1.096721 H        1 UNL1     0.0236
     103 H         3.607407   4.305722   -0.087046 H        1 UNL1     0.0236
     104 H         2.812952   2.426394   0.86583 H        1 UNL1     0.2098
     105 H         0.807886   -0.194643   -1.523227 H        1 UNL1     0.0234
     106 H         1.646306   -0.379615   0.043277 H        1 UNL1     0.0234
     107 H         0.0   -0.0   0.0 H        1 UNL1     0.0234
     108 H         0.638032   3.567836   -1.909983 H        1 UNL1     0.2098
     109 H         -0.004086   -0.699488   -4.359365 H        1 UNL1     0.0234
     110 H         0.688792   0.415603   -3.138999 H        1 UNL1     0.0234
     111 H         0.147281   -1.159722   -2.676442 H        1 UNL1     0.0234
     112 H         -2.623556   -0.725045   2.491924 H        1 UNL1     0.0342
     113 H         -3.261041   0.378718   1.221665 H        1 UNL1     0.0342
     114 H         -3.758874   -1.314867   1.265265 H        1 UNL1     0.0342
     115 H         -3.416708   3.184201   -0.015824 H        1 UNL1     0.0234
     116 H         -3.138779   3.282129   -1.757648 H        1 UNL1     0.0234
     117 H         -4.131038   2.009138   -1.016998 H        1 UNL1     0.0234
     118 H         -0.489149   1.363532   -7.106879 H        1 UNL1     0.0309
     119 H         0.771094   1.25779   -8.375211 H        1 UNL1     0.0309
     120 H         1.030325   0.620608   -6.766188 H        1 UNL1     0.0309
     121 H         -4.196502   3.719363   -3.587618 H        1 UNL1     0.0524
     122 H         -4.156417   2.381679   -4.743409 H        1 UNL1     0.0524
     123 H         -4.532206   2.056982   -3.032533 H        1 UNL1     0.0524
@<TRIPOS>BOND
     1     1     2    1
     2     1    42    1
     3     2     3    2
     4     3     4    1
     5     4     5    2
     6     5     7    1
     7     6    75    1
     8     6    76    1
     9     6    77    1
    10     7     9   am
    11     9    10    1
    12    10    11    2
    13    10    43    1
    14    11    14    1
    15    11    15    1
    16    12    13   ar
    17    12    27   ar
    18    12    43    1
    19    13    14    1
    20    13    30   ar
    21    14    17    2
    22    15    16    1
    23    16    17    1
    24    16    18    1
    25    16    22    1
    26    18    19    1
    27    19    20    1
    28    20    21    1
    29    21    22    1
    30    23    24    1
    31    23    88    1
    32    23    89    1
    33    24    25    1
    34    24    26    1
    35    24    90    1
    36    25    91    1
    37    25    92    1
    38    25    93    1
    39    26    94    1
    40    26    95    1
    41    26    96    1
    42    27    28   ar
    43    28    29   ar
    44    29    30   ar
    45    29    31    1
    46    30    33    1
    47    31    32    1
    48    32    33    1
    49    32    35    1
    50    34    97    1
    51    34    98    1
    52    34    99    1
    53    35    61    1
    54    36    37    1
    55    36    60    1
    56    37    38    1
    57    38    39    1
    58    39    40    1
    59    40    41    1
    60    41    42    1
    61    45   100    1
    62    47   101    1
    63    47   102    1
    64    47   103    1
    65    48   104    1
    66    49   105    1
    67    49   106    1
    68    49   107    1
    69    50   108    1
    70    51    59    1
    71    52   109    1
    72    52   110    1
    73    52   111    1
    74    53    54    1
    75    54    55    2
    76    54    56    1
    77    56   112    1
    78    56   113    1
    79    56   114    1
    80    57   115    1
    81    57   116    1
    82    57   117    1
    83    58   118    1
    84    58   119    1
    85    58   120    1
    86    59   121    1
    87    59   122    1
    88    59   123    1
    89    60    61    2
    90     1    47    1
    91     1    62    1
    92     2    63    1
    93     3    64    1
    94     4    65    1
    95     5     6    1
    96     7     8    2
    97     9    78    1
    98    15    79    1
    99    18    80    1
   100    18    81    1
   101    19    82    1
   102    19    83    1
   103    20    23    1
   104    21    84    1
   105    21    85    1
   106    22    86    1
   107    22    87    1
   108    27    45    1
   109    28    34    1
   110    32    58    1
   111    33    46    2
   112    36    51    1
   113    36    66    1
   114    37    52    1
   115    37    67    1
   116    38    53    1
   117    38    68    1
   118    42    48    1
   119    42    72    1
   120    43    44    2
   121    60    73    1
   122    61    74    1
   123    39    69    1
   124    39    57    1
   125    40    70    1
   126    40    50    1
   127    41    71    1
   128    41    49    1
