@<TRIPOS>MOLECULE
*****
 123 128 0 0 0
SMALL
GASTEIGER

@<TRIPOS>ATOM
     1 C         1.875504   1.30584   -3.854089 C.3        1 UNL1     0.0009
     2 C         1.499519   2.780391   -4.913037 C.2        1 UNL1     -0.0787
     3 C         0.981739   3.345521   -6.141279 C.2        1 UNL1     -0.0649
     4 C         0.775515   4.980715   -6.528538 C.2        1 UNL1     -0.0542
     5 C         0.102318   5.89802   -7.372597 C.2        1 UNL1     0.0115
     6 C         -0.793454   6.018785   -8.636057 C.3        1 UNL1     -0.0348
     7 C         0.03296   7.442983   -6.942167 C.2        1 UNL1     0.2441
     8 O         0.747386   8.304203   -7.436557 O.2        1 UNL1     -0.2702
     9 N         -1.077995   7.784817   -6.151546 N.am        1 UNL1     -0.2772
     10 C         -0.795263   7.594996   -4.818372 C.2        1 UNL1     0.1049
     11 C         -0.933472   6.362732   -4.36379 C.2        1 UNL1     0.0801
     12 C         0.916836   8.091495   -3.06351 C.ar        1 UNL1     0.0753
     13 C         0.882303   6.696207   -2.746357 C.ar        1 UNL1     0.0305
     14 C         -0.140839   5.811127   -3.298501 C.2        1 UNL1     0.0924
     15 N         -1.507612   5.290385   -4.935598 N.pl3        1 UNL1     -0.3170
     16 C         -1.548176   4.238383   -3.954832 C.3        1 UNL1     0.1275
     17 N         -0.383166   4.529078   -3.040518 N.2        1 UNL1     -0.2557
     18 C         -2.806235   4.448855   -3.117758 C.3        1 UNL1     0.0016
     19 C         -4.008439   4.486848   -4.047732 C.3        1 UNL1     0.0026
     20 N         -4.071722   3.230705   -4.781984 N.3        1 UNL1     -0.3018
     21 C         -2.879605   2.91029   -5.569741 C.3        1 UNL1     0.0026
     22 C         -1.685009   2.872759   -4.615055 C.3        1 UNL1     0.0016
     23 C         -5.334486   3.041311   -5.467696 C.3        1 UNL1     0.0012
     24 C         -6.365447   4.077831   -4.993879 C.3        1 UNL1     -0.0339
     25 C         -7.066   4.757803   -6.1817 C.3        1 UNL1     -0.0615
     26 C         -7.364786   3.426291   -4.053881 C.3        1 UNL1     -0.0615
     27 C         1.818742   8.951092   -2.440792 C.ar        1 UNL1     0.1347
     28 C         2.703995   8.540356   -1.460142 C.ar        1 UNL1     0.0342
     29 C         2.685681   7.153697   -1.199368 C.ar        1 UNL1     0.1435
     30 C         1.8127   6.274501   -1.841349 C.ar        1 UNL1     0.0774
     31 O         3.410732   6.615972   -0.194301 O.3        1 UNL1     -0.4436
     32 C         2.792676   5.345294   0.059185 C.3        1 UNL1     0.3143
     33 C         2.075958   4.989635   -1.227685 C.2        1 UNL1     0.2504
     34 C         3.519314   9.441305   -0.574904 C.3        1 UNL1     -0.0327
     35 O         3.843996   4.386724   0.229833 O.2        1 UNL1     -0.4528
     36 C         2.483326   1.762748   2.611306 C.3        1 UNL1     0.0854
     37 C         1.193005   0.866195   2.47424 C.3        1 UNL1     0.0236
     38 C         1.451047   -0.712166   2.592286 C.3        1 UNL1     0.1131
     39 C         2.575125   -1.392023   1.711086 C.3        1 UNL1     0.0200
     40 C         2.745773   -0.989277   0.101393 C.3        1 UNL1     0.0661
     41 C         1.500082   -0.944732   -1.049207 C.3        1 UNL1     0.0091
     42 C         1.275752   0.129603   -2.519202 C.3        1 UNL1     0.0661
     43 C         -0.099957   8.609436   -4.012262 C.2        1 UNL1     0.2131
     44 O         -0.434346   9.778963   -4.068193 O.2        1 UNL1     -0.2851
     45 O         1.818103   10.286101   -2.839775 O.3        1 UNL1     -0.5056
     46 O         1.803483   3.891988   -1.659869 O.2        1 UNL1     -0.2836
     47 C         3.125634   0.559638   -4.392919 C.3        1 UNL1     -0.0566
     48 O         0.935768   -0.991546   -3.428351 O.3        1 UNL1     -0.3909
     49 C         0.170101   -0.992657   -0.330633 C.3        1 UNL1     -0.0577
     50 O         3.58078   0.141481   -0.046502 O.3        1 UNL1     -0.3910
     51 O         3.712255   1.072765   2.644274 O.3        1 UNL1     -0.3753
     52 C         0.172407   1.467551   1.453603 C.3        1 UNL1     -0.0564
     53 O         0.199253   -1.510672   2.81075 O.3        1 UNL1     -0.4608
     54 C         0.051439   -2.846536   2.543269 C.2        1 UNL1     0.3042
     55 O         -0.52   -3.356678   1.580434 O.2        1 UNL1     -0.2512
     56 C         0.7311   -3.738772   3.542614 C.3        1 UNL1     0.0332
     57 C         3.900415   -1.478161   2.602355 C.3        1 UNL1     -0.0567
     58 C         1.740205   5.584   1.16682 C.3        1 UNL1     0.0210
     59 C         4.795362   1.804555   3.216312 C.3        1 UNL1     0.0372
     60 C         2.618501   2.831451   1.584291 C.2        1 UNL1     -0.0208
     61 C         3.676304   3.211803   0.866565 C.2        1 UNL1     0.0882
     62 H         2.230287   1.984241   -3.068843 H        1 UNL1     0.0365
     63 H         1.916898   3.582495   -4.300751 H        1 UNL1     0.0576
     64 H         0.505225   2.72275   -6.901673 H        1 UNL1     0.0615
     65 H         1.349826   5.504998   -5.759918 H        1 UNL1     0.0622
     66 H         2.357848   2.28205   3.571841 H        1 UNL1     0.0645
     67 H         0.627924   1.066132   3.401208 H        1 UNL1     0.0362
     68 H         1.82234   -0.760948   3.627315 H        1 UNL1     0.0741
     69 H         2.389061   -2.456988   1.670618 H        1 UNL1     0.0359
     70 H         3.366582   -1.838479   -0.242863 H        1 UNL1     0.0600
     71 H         1.568494   -1.975807   -1.448158 H        1 UNL1     0.0348
     72 H         2.344026   0.184062   -2.263978 H        1 UNL1     0.0602
     73 H         1.724201   3.402964   1.555161 H        1 UNL1     0.0628
     74 H         4.60827   2.649876   0.796461 H        1 UNL1     0.1022
     75 H         -0.907101   7.088653   -8.935226 H        1 UNL1     0.0279
     76 H         -0.413089   5.56021   -9.546057 H        1 UNL1     0.0279
     77 H         -1.838729   5.734889   -8.444995 H        1 UNL1     0.0279
     78 H         -1.863744   7.182085   -6.386894 H        1 UNL1     0.1553
     79 H         -2.155653   5.346673   -5.69967 H        1 UNL1     0.1484
     80 H         -2.890212   3.634816   -2.387652 H        1 UNL1     0.0317
     81 H         -2.743099   5.379504   -2.543687 H        1 UNL1     0.0317
     82 H         -3.964974   5.344992   -4.734472 H        1 UNL1     0.0428
     83 H         -4.894303   4.639524   -3.430491 H        1 UNL1     0.0428
     84 H         -2.920508   1.926091   -6.046701 H        1 UNL1     0.0428
     85 H         -2.743994   3.607583   -6.408018 H        1 UNL1     0.0428
     86 H         -0.859967   2.507209   -5.197866 H        1 UNL1     0.0317
     87 H         -1.831321   2.088393   -3.86242 H        1 UNL1     0.0317
     88 H         -5.164085   3.184085   -6.542812 H        1 UNL1     0.0429
     89 H         -5.711026   2.018906   -5.334736 H        1 UNL1     0.0429
     90 H         -5.855382   4.847261   -4.402252 H        1 UNL1     0.0308
     91 H         -7.131689   4.085689   -7.042543 H        1 UNL1     0.0233
     92 H         -8.071126   5.082767   -5.902898 H        1 UNL1     0.0233
     93 H         -6.536705   5.656915   -6.519753 H        1 UNL1     0.0233
     94 H         -8.287123   4.015915   -4.015488 H        1 UNL1     0.0233
     95 H         -7.619152   2.425583   -4.41422 H        1 UNL1     0.0233
     96 H         -6.964152   3.344972   -3.03956 H        1 UNL1     0.0233
     97 H         3.308884   9.277338   0.477743 H        1 UNL1     0.0280
     98 H         4.597676   9.274337   -0.69537 H        1 UNL1     0.0280
     99 H         3.294403   10.493976   -0.812377 H        1 UNL1     0.0280
     100 H         1.848995   10.416359   -3.77128 H        1 UNL1     0.2922
     101 H         3.203339   0.703002   -5.470446 H        1 UNL1     0.0236
     102 H         3.147318   -0.494356   -4.117946 H        1 UNL1     0.0236
     103 H         4.062984   0.975303   -3.986974 H        1 UNL1     0.0236
     104 H         1.77107   -1.325284   -3.810266 H        1 UNL1     0.2098
     105 H         -0.669056   -1.282821   -0.957874 H        1 UNL1     0.0234
     106 H         0.17134   -1.573929   0.591347 H        1 UNL1     0.0234
     107 H         0.0   0.0   0.0 H        1 UNL1     0.0234
     108 H         3.41396   0.51108   -0.934948 H        1 UNL1     0.2098
     109 H         0.602821   1.572782   0.447927 H        1 UNL1     0.0234
     110 H         -0.762422   0.899796   1.394503 H        1 UNL1     0.0234
     111 H         -0.146944   2.476367   1.747289 H        1 UNL1     0.0234
     112 H         0.527952   -3.383476   4.557425 H        1 UNL1     0.0342
     113 H         0.437392   -4.781036   3.427441 H        1 UNL1     0.0342
     114 H         1.815286   -3.678016   3.375245 H        1 UNL1     0.0342
     115 H         3.733405   -2.044653   3.528844 H        1 UNL1     0.0234
     116 H         4.751549   -1.930696   2.089684 H        1 UNL1     0.0234
     117 H         4.224328   -0.502782   3.004421 H        1 UNL1     0.0234
     118 H         2.075645   5.201716   2.146792 H        1 UNL1     0.0309
     119 H         1.456945   6.63622   1.27074 H        1 UNL1     0.0309
     120 H         0.80903   5.035625   0.987089 H        1 UNL1     0.0309
     121 H         5.719013   1.412254   2.791664 H        1 UNL1     0.0524
     122 H         4.748592   2.879236   2.973598 H        1 UNL1     0.0524
     123 H         4.79966   1.686852   4.296229 H        1 UNL1     0.0524
@<TRIPOS>BOND
     1     1     2    1
     2     1    42    1
     3     2     3    2
     4     3     4    1
     5     4     5    2
     6     5     7    1
     7     6    75    1
     8     6    76    1
     9     6    77    1
    10     7     9   am
    11     9    10    1
    12    10    11    2
    13    10    43    1
    14    11    14    1
    15    11    15    1
    16    12    13   ar
    17    12    27   ar
    18    12    43    1
    19    13    14    1
    20    13    30   ar
    21    14    17    2
    22    15    16    1
    23    16    17    1
    24    16    18    1
    25    16    22    1
    26    18    19    1
    27    19    20    1
    28    20    21    1
    29    21    22    1
    30    23    24    1
    31    23    88    1
    32    23    89    1
    33    24    25    1
    34    24    26    1
    35    24    90    1
    36    25    91    1
    37    25    92    1
    38    25    93    1
    39    26    94    1
    40    26    95    1
    41    26    96    1
    42    27    28   ar
    43    28    29   ar
    44    29    30   ar
    45    29    31    1
    46    30    33    1
    47    31    32    1
    48    32    33    1
    49    32    35    1
    50    34    97    1
    51    34    98    1
    52    34    99    1
    53    35    61    1
    54    36    37    1
    55    36    60    1
    56    37    38    1
    57    38    39    1
    58    39    40    1
    59    40    41    1
    60    41    42    1
    61    45   100    1
    62    47   101    1
    63    47   102    1
    64    47   103    1
    65    48   104    1
    66    49   105    1
    67    49   106    1
    68    49   107    1
    69    50   108    1
    70    51    59    1
    71    52   109    1
    72    52   110    1
    73    52   111    1
    74    53    54    1
    75    54    55    2
    76    54    56    1
    77    56   112    1
    78    56   113    1
    79    56   114    1
    80    57   115    1
    81    57   116    1
    82    57   117    1
    83    58   118    1
    84    58   119    1
    85    58   120    1
    86    59   121    1
    87    59   122    1
    88    59   123    1
    89    60    61    2
    90     1    47    1
    91     1    62    1
    92     2    63    1
    93     3    64    1
    94     4    65    1
    95     5     6    1
    96     7     8    2
    97     9    78    1
    98    15    79    1
    99    18    80    1
   100    18    81    1
   101    19    82    1
   102    19    83    1
   103    20    23    1
   104    21    84    1
   105    21    85    1
   106    22    86    1
   107    22    87    1
   108    27    45    1
   109    28    34    1
   110    32    58    1
   111    33    46    2
   112    36    51    1
   113    36    66    1
   114    37    52    1
   115    37    67    1
   116    38    53    1
   117    38    68    1
   118    42    48    1
   119    42    72    1
   120    43    44    2
   121    60    73    1
   122    61    74    1
   123    39    69    1
   124    39    57    1
   125    40    70    1
   126    40    50    1
   127    41    71    1
   128    41    49    1
