@<TRIPOS>MOLECULE
*****
 123 128 0 0 0
SMALL
GASTEIGER

@<TRIPOS>ATOM
     1 C         -0.112667   0.952253   4.033858 C.3        1 UNL1     0.0009
     2 C         -1.454929   0.547777   5.247023 C.2        1 UNL1     -0.0787
     3 C         -2.624114   0.942101   6.004362 C.2        1 UNL1     -0.0649
     4 C         -3.605384   -0.029033   6.984344 C.2        1 UNL1     -0.0542
     5 C         -4.876534   -0.149286   7.59818 C.2        1 UNL1     0.0115
     6 C         -6.191778   0.610683   7.923606 C.3        1 UNL1     -0.0348
     7 C         -5.361756   -1.593701   8.103367 C.2        1 UNL1     0.2441
     8 O         -5.333603   -1.9316   9.278763 O.2        1 UNL1     -0.2702
     9 N         -6.06276   -2.347601   7.146089 N.am        1 UNL1     -0.2772
     10 C         -5.188634   -3.088385   6.384206 C.2        1 UNL1     0.1049
     11 C         -4.618332   -2.457399   5.373842 C.2        1 UNL1     0.0801
     12 C         -3.2449   -4.653766   6.553947 C.ar        1 UNL1     0.0753
     13 C         -2.584355   -3.811862   5.603429 C.ar        1 UNL1     0.0305
     14 C         -3.300676   -2.760514   4.884678 C.2        1 UNL1     0.0924
     15 N         -4.903861   -1.261795   4.830214 N.pl3        1 UNL1     -0.3170
     16 C         -4.101069   -1.114909   3.645223 C.3        1 UNL1     0.1275
     17 N         -2.879176   -1.960426   3.909421 N.2        1 UNL1     -0.2557
     18 C         -4.849719   -1.797393   2.504415 C.3        1 UNL1     0.0016
     19 C         -6.238852   -1.188106   2.401122 C.3        1 UNL1     0.0026
     20 N         -6.10564   0.241808   2.158989 N.3        1 UNL1     -0.3018
     21 C         -5.345941   0.975968   3.173008 C.3        1 UNL1     0.0026
     22 C         -3.952627   0.35023   3.256791 C.3        1 UNL1     0.0016
     23 C         -7.34957   0.862708   1.749399 C.3        1 UNL1     0.0012
     24 C         -7.688474   0.484237   0.299 C.3        1 UNL1     -0.0339
     25 C         -8.398658   1.635836   -0.431421 C.3        1 UNL1     -0.0615
     26 C         -6.430915   0.049079   -0.433096 C.3        1 UNL1     -0.0615
     27 C         -2.586886   -5.729801   7.144951 C.ar        1 UNL1     0.1347
     28 C         -1.285936   -6.085184   6.836274 C.ar        1 UNL1     0.0342
     29 C         -0.639696   -5.213007   5.934695 C.ar        1 UNL1     0.1435
     30 C         -1.274651   -4.110162   5.362168 C.ar        1 UNL1     0.0774
     31 O         0.591822   -5.485478   5.450826 O.3        1 UNL1     -0.4436
     32 C         0.701515   -4.68295   4.265588 C.3        1 UNL1     0.3143
     33 C         -0.289291   -3.552898   4.459235 C.2        1 UNL1     0.2504
     34 C         -0.602636   -7.36329   7.235832 C.3        1 UNL1     -0.0327
     35 O         2.008905   -4.096455   4.267761 O.2        1 UNL1     -0.4528
     36 C         2.959948   -3.660476   0.61899 C.3        1 UNL1     0.0854
     37 C         2.2082   -2.86801   -0.518725 C.3        1 UNL1     0.0236
     38 C         3.094138   -1.763537   -1.271719 C.3        1 UNL1     0.1131
     39 C         3.901169   -0.695936   -0.428394 C.3        1 UNL1     0.0200
     40 C         3.193076   0.05695   0.880882 C.3        1 UNL1     0.0661
     41 C         1.671826   0.807466   0.892521 C.3        1 UNL1     0.0091
     42 C         0.436054   0.971479   2.238393 C.3        1 UNL1     0.0661
     43 C         -4.681652   -4.397238   6.822641 C.2        1 UNL1     0.2131
     44 O         -5.441024   -5.233324   7.277672 O.2        1 UNL1     -0.2851
     45 O         -3.287045   -6.47173   8.094034 O.3        1 UNL1     -0.5056
     46 O         -0.260008   -2.436617   3.991354 O.2        1 UNL1     -0.2836
     47 C         0.969263   1.841713   4.703387 C.3        1 UNL1     -0.0566
     48 O         0.216193   2.420857   2.014603 O.3        1 UNL1     -0.3909
     49 C         0.916594   0.398964   -0.352567 C.3        1 UNL1     -0.0577
     50 O         3.360263   -0.714436   2.053373 O.3        1 UNL1     -0.3910
     51 O         4.246428   -3.189257   0.951183 O.3        1 UNL1     -0.3753
     52 C         0.704596   -2.62685   -0.163806 C.3        1 UNL1     -0.0564
     53 O         2.486585   -1.279706   -2.555897 O.3        1 UNL1     -0.4608
     54 C         2.534358   0.007856   -3.02262 C.2        1 UNL1     0.3042
     55 O         3.537561   0.676351   -3.268662 O.2        1 UNL1     -0.2512
     56 C         1.180785   0.598159   -3.298478 C.3        1 UNL1     0.0332
     57 C         5.39291   -1.246149   -0.25476 C.3        1 UNL1     -0.0567
     58 C         0.224254   -5.569176   3.091555 C.3        1 UNL1     0.0210
     59 C         5.320328   -4.023919   0.519973 C.3        1 UNL1     0.0372
     60 C         2.207687   -3.791508   1.896525 C.2        1 UNL1     -0.0208
     61 C         2.610259   -3.627892   3.157441 C.2        1 UNL1     0.0882
     62 H         0.241884   -0.082719   4.110261 H        1 UNL1     0.0365
     63 H         -1.172379   -0.467766   5.53217 H        1 UNL1     0.0576
     64 H         -3.089052   1.921455   5.870932 H        1 UNL1     0.0615
     65 H         -3.018398   -0.941784   7.117818 H        1 UNL1     0.0622
     66 H         3.062065   -4.680842   0.223425 H        1 UNL1     0.0645
     67 H         2.065325   -3.61656   -1.317361 H        1 UNL1     0.0362
     68 H         3.857056   -2.416089   -1.722999 H        1 UNL1     0.0741
     69 H         4.15493   0.136054   -1.071672 H        1 UNL1     0.0359
     70 H         3.88741   0.909296   1.009203 H        1 UNL1     0.0600
     71 H         1.965959   1.844486   0.637508 H        1 UNL1     0.0348
     72 H         1.391658   0.739649   2.730725 H        1 UNL1     0.0602
     73 H         1.241793   -4.183263   1.694472 H        1 UNL1     0.0628
     74 H         3.560608   -3.178834   3.447996 H        1 UNL1     0.1022
     75 H         -6.74311   0.103289   8.751627 H        1 UNL1     0.0279
     76 H         -6.085214   1.625428   8.300444 H        1 UNL1     0.0279
     77 H         -6.927493   0.556029   7.107863 H        1 UNL1     0.0279
     78 H         -6.562863   -1.722328   6.517592 H        1 UNL1     0.1553
     79 H         -5.77903   -0.787334   4.956306 H        1 UNL1     0.1484
     80 H         -4.283558   -1.663643   1.574717 H        1 UNL1     0.0317
     81 H         -4.922365   -2.876932   2.674617 H        1 UNL1     0.0317
     82 H         -6.836916   -1.382724   3.303539 H        1 UNL1     0.0428
     83 H         -6.755916   -1.690351   1.582926 H        1 UNL1     0.0428
     84 H         -5.192541   2.031404   2.927374 H        1 UNL1     0.0428
     85 H         -5.87002   1.000169   4.138448 H        1 UNL1     0.0428
     86 H         -3.385896   0.991296   3.906281 H        1 UNL1     0.0317
     87 H         -3.439279   0.448154   2.292435 H        1 UNL1     0.0317
     88 H         -8.148754   0.49039   2.403601 H        1 UNL1     0.0429
     89 H         -7.311915   1.952373   1.875832 H        1 UNL1     0.0429
     90 H         -8.351196   -0.389267   0.301205 H        1 UNL1     0.0308
     91 H         -7.893057   2.590092   -0.255734 H        1 UNL1     0.0233
     92 H         -8.439953   1.444399   -1.506249 H        1 UNL1     0.0233
     93 H         -9.437545   1.761063   -0.10299 H        1 UNL1     0.0233
     94 H         -6.278272   -1.029007   -0.313656 H        1 UNL1     0.0233
     95 H         -6.52907   0.2593   -1.501803 H        1 UNL1     0.0233
     96 H         -5.547119   0.567647   -0.051049 H        1 UNL1     0.0233
     97 H         -0.390938   -7.396574   8.3004 H        1 UNL1     0.0280
     98 H         -1.219955   -8.246174   7.02443 H        1 UNL1     0.0280
     99 H         0.350797   -7.458045   6.69078 H        1 UNL1     0.0280
     100 H         -3.711198   -5.957235   8.758121 H        1 UNL1     0.2922
     101 H         0.67477   2.889071   4.640363 H        1 UNL1     0.0236
     102 H         1.969235   1.673354   4.305024 H        1 UNL1     0.0236
     103 H         1.059785   1.640993   5.783993 H        1 UNL1     0.0236
     104 H         0.631616   2.653908   1.161327 H        1 UNL1     0.2098
     105 H         0.684811   1.219652   -1.026777 H        1 UNL1     0.0234
     106 H         1.361896   -0.428872   -0.904219 H        1 UNL1     0.0234
     107 H         0.0   -0.0   0.0 H        1 UNL1     0.0234
     108 H         2.821946   -0.298031   2.753794 H        1 UNL1     0.2098
     109 H         0.152684   -3.567708   -0.030052 H        1 UNL1     0.0234
     110 H         0.56702   -1.992713   0.718626 H        1 UNL1     0.0234
     111 H         0.181476   -2.086567   -0.964048 H        1 UNL1     0.0234
     112 H         1.15456   1.640391   -2.966198 H        1 UNL1     0.0342
     113 H         0.904341   0.515779   -4.348542 H        1 UNL1     0.0342
     114 H         0.437156   0.039423   -2.713674 H        1 UNL1     0.0342
     115 H         6.070427   -0.473659   0.134364 H        1 UNL1     0.0234
     116 H         5.472237   -2.114036   0.40291 H        1 UNL1     0.0234
     117 H         5.883165   -1.497532   -1.211001 H        1 UNL1     0.0234
     118 H         -0.772941   -6.004335   3.279295 H        1 UNL1     0.0309
     119 H         0.209843   -5.041072   2.132857 H        1 UNL1     0.0309
     120 H         0.859963   -6.448994   2.94357 H        1 UNL1     0.0309
     121 H         5.345214   -3.992927   -0.568961 H        1 UNL1     0.0524
     122 H         6.298586   -3.668844   0.884624 H        1 UNL1     0.0524
     123 H         5.165122   -5.043076   0.862501 H        1 UNL1     0.0524
@<TRIPOS>BOND
     1     1     2    1
     2     1    42    1
     3     2     3    2
     4     3     4    1
     5     4     5    2
     6     5     7    1
     7     6    75    1
     8     6    76    1
     9     6    77    1
    10     7     9   am
    11     9    10    1
    12    10    11    2
    13    10    43    1
    14    11    14    1
    15    11    15    1
    16    12    13   ar
    17    12    27   ar
    18    12    43    1
    19    13    14    1
    20    13    30   ar
    21    14    17    2
    22    15    16    1
    23    16    17    1
    24    16    18    1
    25    16    22    1
    26    18    19    1
    27    19    20    1
    28    20    21    1
    29    21    22    1
    30    23    24    1
    31    23    88    1
    32    23    89    1
    33    24    25    1
    34    24    26    1
    35    24    90    1
    36    25    91    1
    37    25    92    1
    38    25    93    1
    39    26    94    1
    40    26    95    1
    41    26    96    1
    42    27    28   ar
    43    28    29   ar
    44    29    30   ar
    45    29    31    1
    46    30    33    1
    47    31    32    1
    48    32    33    1
    49    32    35    1
    50    34    97    1
    51    34    98    1
    52    34    99    1
    53    35    61    1
    54    36    37    1
    55    36    60    1
    56    37    38    1
    57    38    39    1
    58    39    40    1
    59    40    41    1
    60    41    42    1
    61    45   100    1
    62    47   101    1
    63    47   102    1
    64    47   103    1
    65    48   104    1
    66    49   105    1
    67    49   106    1
    68    49   107    1
    69    50   108    1
    70    51    59    1
    71    52   109    1
    72    52   110    1
    73    52   111    1
    74    53    54    1
    75    54    55    2
    76    54    56    1
    77    56   112    1
    78    56   113    1
    79    56   114    1
    80    57   115    1
    81    57   116    1
    82    57   117    1
    83    58   118    1
    84    58   119    1
    85    58   120    1
    86    59   121    1
    87    59   122    1
    88    59   123    1
    89    60    61    2
    90     1    47    1
    91     1    62    1
    92     2    63    1
    93     3    64    1
    94     4    65    1
    95     5     6    1
    96     7     8    2
    97     9    78    1
    98    15    79    1
    99    18    80    1
   100    18    81    1
   101    19    82    1
   102    19    83    1
   103    20    23    1
   104    21    84    1
   105    21    85    1
   106    22    86    1
   107    22    87    1
   108    27    45    1
   109    28    34    1
   110    32    58    1
   111    33    46    2
   112    36    51    1
   113    36    66    1
   114    37    52    1
   115    37    67    1
   116    38    53    1
   117    38    68    1
   118    42    48    1
   119    42    72    1
   120    43    44    2
   121    60    73    1
   122    61    74    1
   123    39    69    1
   124    39    57    1
   125    40    70    1
   126    40    50    1
   127    41    71    1
   128    41    49    1
