@<TRIPOS>MOLECULE
*****
 123 128 0 0 0
SMALL
GASTEIGER

@<TRIPOS>ATOM
     1 C         3.482189   0.65982   -4.17741 C.3        1 UNL1     0.0009
     2 C         5.033248   0.053617   -4.992131 C.2        1 UNL1     -0.0787
     3 C         6.448225   0.196786   -5.263033 C.2        1 UNL1     -0.0649
     4 C         7.463149   -0.876528   -6.090249 C.2        1 UNL1     -0.0542
     5 C         8.806674   -1.269852   -6.30777 C.2        1 UNL1     0.0115
     6 C         10.287974   -0.875982   -6.054909 C.3        1 UNL1     -0.0348
     7 C         9.100037   -2.714633   -6.943015 C.2        1 UNL1     0.2441
     8 O         9.403281   -2.876187   -8.117097 O.2        1 UNL1     -0.2702
     9 N         9.241316   -3.752559   -6.005518 N.am        1 UNL1     -0.2772
     10 C         8.016378   -4.308864   -5.716771 C.2        1 UNL1     0.1049
     11 C         7.289714   -3.678689   -4.811751 C.2        1 UNL1     0.0801
     12 C         5.952257   -5.227404   -6.790559 C.ar        1 UNL1     0.0753
     13 C         5.211053   -4.36354   -5.922824 C.ar        1 UNL1     0.0305
     14 C         5.85202   -3.658671   -4.814955 C.2        1 UNL1     0.0924
     15 N         7.630352   -2.692648   -3.964273 N.pl3        1 UNL1     -0.3170
     16 C         6.523345   -2.479748   -3.070147 C.3        1 UNL1     0.1275
     17 N         5.310942   -2.905129   -3.861888 N.2        1 UNL1     -0.2557
     18 C         6.660887   -3.486902   -1.932419 C.3        1 UNL1     0.0016
     19 C         8.028348   -3.312471   -1.29116 C.3        1 UNL1     0.0026
     20 N         8.143266   -1.946721   -0.798669 N.3        1 UNL1     -0.3018
     21 C         7.963574   -0.903692   -1.810683 C.3        1 UNL1     0.0026
     22 C         6.581907   -1.095105   -2.438577 C.3        1 UNL1     0.0016
     23 C         9.275512   -1.759874   0.086629 C.3        1 UNL1     0.0012
     24 C         9.03686   -2.476655   1.424922 C.3        1 UNL1     -0.0339
     25 C         9.670437   -1.707333   2.595725 C.3        1 UNL1     -0.0615
     26 C         7.549501   -2.696339   1.640053 C.3        1 UNL1     -0.0615
     27 C         5.314982   -5.98867   -7.76753 C.ar        1 UNL1     0.1347
     28 C         3.942942   -5.99975   -7.944829 C.ar        1 UNL1     0.0342
     29 C         3.238393   -5.104818   -7.111841 C.ar        1 UNL1     0.1435
     30 C         3.866993   -4.309178   -6.153175 C.ar        1 UNL1     0.0774
     31 O         1.887922   -5.079259   -7.087696 O.3        1 UNL1     -0.4436
     32 C         1.559475   -4.438387   -5.845812 C.3        1 UNL1     0.3143
     33 C         2.782315   -3.618244   -5.487704 C.2        1 UNL1     0.2504
     34 C         3.171548   -6.970725   -8.794686 C.3        1 UNL1     -0.0327
     35 O         0.499126   -3.512039   -6.111878 O.2        1 UNL1     -0.4528
     36 C         -1.526252   -3.300622   -2.908563 C.3        1 UNL1     0.0854
     37 C         -1.055033   -2.905962   -1.456075 C.3        1 UNL1     0.0236
     38 C         -1.875099   -1.703438   -0.782893 C.3        1 UNL1     0.1131
     39 C         -2.082138   -0.352095   -1.578679 C.3        1 UNL1     0.0200
     40 C         -0.817538   0.333187   -2.423435 C.3        1 UNL1     0.0661
     41 C         0.741531   0.619494   -1.819329 C.3        1 UNL1     0.0091
     42 C         2.368256   0.600921   -2.667163 C.3        1 UNL1     0.0661
     43 C         7.412274   -5.353744   -6.556792 C.2        1 UNL1     0.2131
     44 O         8.074398   -6.303904   -6.932991 O.2        1 UNL1     -0.2851
     45 O         6.11417   -6.768833   -8.600645 O.3        1 UNL1     -0.5056
     46 O         2.8442   -2.609114   -4.821611 O.2        1 UNL1     -0.2836
     47 C         2.924828   1.896833   -4.931816 C.3        1 UNL1     -0.0566
     48 O         2.815813   1.888038   -2.082234 O.3        1 UNL1     -0.3909
     49 C         0.910452   -0.142495   -0.523824 C.3        1 UNL1     -0.0577
     50 O         -0.739005   -0.20169   -3.729368 O.3        1 UNL1     -0.3910
     51 O         -2.479743   -2.447153   -3.500067 O.3        1 UNL1     -0.3753
     52 C         0.492182   -3.054621   -1.285858 C.3        1 UNL1     -0.0564
     53 O         -1.654782   -1.58048   0.696522 O.3        1 UNL1     -0.4608
     54 C         -1.90278   -0.46102   1.447011 C.2        1 UNL1     0.3042
     55 O         -1.155495   0.500318   1.623741 O.2        1 UNL1     -0.2512
     56 C         -3.27737   -0.435233   2.052448 C.3        1 UNL1     0.0332
     57 C         -3.505756   -0.432362   -2.303279 C.3        1 UNL1     -0.0567
     58 C         1.392544   -5.56705   -4.801884 C.3        1 UNL1     0.0210
     59 C         -3.794364   -2.993201   -3.597368 C.3        1 UNL1     0.0372
     60 C         -0.429935   -3.472259   -3.900424 C.2        1 UNL1     -0.0208
     61 C         -0.326566   -3.040439   -5.158038 C.2        1 UNL1     0.0882
     62 H         2.953746   -0.214376   -4.57646 H        1 UNL1     0.0365
     63 H         4.646641   -0.795447   -5.559666 H        1 UNL1     0.0576
     64 H         7.045272   0.97963   -4.789962 H        1 UNL1     0.0615
     65 H         6.769712   -1.561648   -6.585465 H        1 UNL1     0.0622
     66 H         -1.98364   -4.293015   -2.790244 H        1 UNL1     0.0645
     67 H         -1.366935   -3.76102   -0.831453 H        1 UNL1     0.0362
     68 H         -2.872014   -2.167095   -0.73089 H        1 UNL1     0.0741
     69 H         -2.34888   0.427367   -0.87747 H        1 UNL1     0.0359
     70 H         -1.215978   1.355797   -2.566866 H        1 UNL1     0.0600
     71 H         0.617422   1.655396   -1.447226 H        1 UNL1     0.0348
     72 H         1.614407   0.713401   -3.459864 H        1 UNL1     0.0602
     73 H         0.293758   -4.143024   -3.508517 H        1 UNL1     0.0628
     74 H         -0.992816   -2.308148   -5.615312 H        1 UNL1     0.1022
     75 H         10.347096   0.034389   -5.410888 H        1 UNL1     0.0279
     76 H         10.893192   -1.592392   -5.503966 H        1 UNL1     0.0279
     77 H         10.797619   -0.530328   -6.966219 H        1 UNL1     0.0279
     78 H         9.620901   -3.380185   -5.137573 H        1 UNL1     0.1553
     79 H         8.577909   -2.471931   -3.718605 H        1 UNL1     0.1484
     80 H         5.854579   -3.320218   -1.207953 H        1 UNL1     0.0317
     81 H         6.544326   -4.511757   -2.300844 H        1 UNL1     0.0317
     82 H         8.840751   -3.549538   -1.993807 H        1 UNL1     0.0428
     83 H         8.106017   -4.041343   -0.483841 H        1 UNL1     0.0428
     84 H         7.975147   0.111266   -1.401369 H        1 UNL1     0.0428
     85 H         8.779121   -0.903732   -2.547025 H        1 UNL1     0.0428
     86 H         6.431931   -0.242036   -3.074005 H        1 UNL1     0.0317
     87 H         5.803824   -0.981841   -1.673819 H        1 UNL1     0.0317
     88 H         10.15995   -2.199703   -0.392552 H        1 UNL1     0.0429
     89 H         9.489633   -0.694428   0.24074 H        1 UNL1     0.0429
     90 H         9.484151   -3.476784   1.381485 H        1 UNL1     0.0308
     91 H         9.563084   -2.255655   3.536428 H        1 UNL1     0.0233
     92 H         10.730569   -1.522044   2.407583 H        1 UNL1     0.0233
     93 H         9.210131   -0.723385   2.74672 H        1 UNL1     0.0233
     94 H         7.374921   -3.177049   2.608699 H        1 UNL1     0.0233
     95 H         7.026279   -1.736026   1.64111 H        1 UNL1     0.0233
     96 H         7.122481   -3.330121   0.857786 H        1 UNL1     0.0233
     97 H         2.436624   -7.523351   -8.216999 H        1 UNL1     0.0280
     98 H         2.609939   -6.467135   -9.592338 H        1 UNL1     0.0280
     99 H         3.866477   -7.693928   -9.252011 H        1 UNL1     0.0280
     100 H         6.297854   -7.631198   -8.271694 H        1 UNL1     0.2922
     101 H         1.870088   2.029384   -4.691797 H        1 UNL1     0.0236
     102 H         3.097805   1.857147   -6.006752 H        1 UNL1     0.0236
     103 H         3.406254   2.83333   -4.604104 H        1 UNL1     0.0236
     104 H         2.521511   2.602224   -2.680812 H        1 UNL1     0.2098
     105 H         1.058913   -1.212231   -0.648065 H        1 UNL1     0.0234
     106 H         1.661947   0.267346   0.150871 H        1 UNL1     0.0234
     107 H         0.0   0.0   0.0 H        1 UNL1     0.0234
     108 H         -0.377453   -1.105554   -3.6514 H        1 UNL1     0.2098
     109 H         0.831138   -4.087406   -1.447648 H        1 UNL1     0.0234
     110 H         1.063084   -2.37656   -1.929324 H        1 UNL1     0.0234
     111 H         0.814654   -2.791713   -0.269572 H        1 UNL1     0.0234
     112 H         -3.219083   -0.105367   3.094147 H        1 UNL1     0.0342
     113 H         -3.964135   0.189015   1.482789 H        1 UNL1     0.0342
     114 H         -3.674698   -1.459559   2.045284 H        1 UNL1     0.0342
     115 H         -4.308546   -0.690443   -1.598929 H        1 UNL1     0.0234
     116 H         -3.798029   0.488948   -2.811033 H        1 UNL1     0.0234
     117 H         -3.584174   -1.260514   -3.028507 H        1 UNL1     0.0234
     118 H         0.341533   -5.687298   -4.485779 H        1 UNL1     0.0309
     119 H         1.775122   -6.532459   -5.148036 H        1 UNL1     0.0309
     120 H         1.915531   -5.352436   -3.863518 H        1 UNL1     0.0309
     121 H         -4.290727   -2.509826   -4.438396 H        1 UNL1     0.0524
     122 H         -3.78322   -4.077643   -3.797115 H        1 UNL1     0.0524
     123 H         -4.346572   -2.809296   -2.680123 H        1 UNL1     0.0524
@<TRIPOS>BOND
     1     1     2    1
     2     1    42    1
     3     2     3    2
     4     3     4    1
     5     4     5    2
     6     5     7    1
     7     6    75    1
     8     6    76    1
     9     6    77    1
    10     7     9   am
    11     9    10    1
    12    10    11    2
    13    10    43    1
    14    11    14    1
    15    11    15    1
    16    12    13   ar
    17    12    27   ar
    18    12    43    1
    19    13    14    1
    20    13    30   ar
    21    14    17    2
    22    15    16    1
    23    16    17    1
    24    16    18    1
    25    16    22    1
    26    18    19    1
    27    19    20    1
    28    20    21    1
    29    21    22    1
    30    23    24    1
    31    23    88    1
    32    23    89    1
    33    24    25    1
    34    24    26    1
    35    24    90    1
    36    25    91    1
    37    25    92    1
    38    25    93    1
    39    26    94    1
    40    26    95    1
    41    26    96    1
    42    27    28   ar
    43    28    29   ar
    44    29    30   ar
    45    29    31    1
    46    30    33    1
    47    31    32    1
    48    32    33    1
    49    32    35    1
    50    34    97    1
    51    34    98    1
    52    34    99    1
    53    35    61    1
    54    36    37    1
    55    36    60    1
    56    37    38    1
    57    38    39    1
    58    39    40    1
    59    40    41    1
    60    41    42    1
    61    45   100    1
    62    47   101    1
    63    47   102    1
    64    47   103    1
    65    48   104    1
    66    49   105    1
    67    49   106    1
    68    49   107    1
    69    50   108    1
    70    51    59    1
    71    52   109    1
    72    52   110    1
    73    52   111    1
    74    53    54    1
    75    54    55    2
    76    54    56    1
    77    56   112    1
    78    56   113    1
    79    56   114    1
    80    57   115    1
    81    57   116    1
    82    57   117    1
    83    58   118    1
    84    58   119    1
    85    58   120    1
    86    59   121    1
    87    59   122    1
    88    59   123    1
    89    60    61    2
    90     1    47    1
    91     1    62    1
    92     2    63    1
    93     3    64    1
    94     4    65    1
    95     5     6    1
    96     7     8    2
    97     9    78    1
    98    15    79    1
    99    18    80    1
   100    18    81    1
   101    19    82    1
   102    19    83    1
   103    20    23    1
   104    21    84    1
   105    21    85    1
   106    22    86    1
   107    22    87    1
   108    27    45    1
   109    28    34    1
   110    32    58    1
   111    33    46    2
   112    36    51    1
   113    36    66    1
   114    37    52    1
   115    37    67    1
   116    38    53    1
   117    38    68    1
   118    42    48    1
   119    42    72    1
   120    43    44    2
   121    60    73    1
   122    61    74    1
   123    39    69    1
   124    39    57    1
   125    40    70    1
   126    40    50    1
   127    41    71    1
   128    41    49    1
