@<TRIPOS>MOLECULE
*****
 123 128 0 0 0
SMALL
GASTEIGER

@<TRIPOS>ATOM
     1 C         2.553308   3.8796   0.91053 C.3        1 UNL1     0.0009
     2 C         2.735135   5.596905   0.236112 C.2        1 UNL1     -0.0787
     3 C         3.278623   6.508699   -0.748418 C.2        1 UNL1     -0.0649
     4 C         2.953504   8.160448   -0.928367 C.2        1 UNL1     -0.0542
     5 C         2.99615   9.261944   -1.818292 C.2        1 UNL1     0.0115
     6 C         3.524147   9.743202   -3.19776 C.3        1 UNL1     -0.0348
     7 C         2.11224   10.561007   -1.489464 C.2        1 UNL1     0.2441
     8 O         2.584943   11.584979   -1.015589 O.2        1 UNL1     -0.2702
     9 N         0.811567   10.538693   -2.02229 N.am        1 UNL1     -0.2772
     10 C         -0.055837   9.927617   -1.146208 C.2        1 UNL1     0.1049
     11 C         -0.088035   8.607874   -1.18447 C.2        1 UNL1     0.0801
     12 C         -0.772221   9.914042   1.250445 C.ar        1 UNL1     0.0753
     13 C         -0.589187   8.494924   1.215619 C.ar        1 UNL1     0.0305
     14 C         -0.367928   7.782576   -0.040826 C.2        1 UNL1     0.0924
     15 N         0.434149   7.756783   -2.084189 N.pl3        1 UNL1     -0.3170
     16 C         -0.030558   6.434363   -1.75937 C.3        1 UNL1     0.1275
     17 N         -0.27801   6.475752   -0.271157 N.2        1 UNL1     -0.2557
     18 C         -1.399114   6.263106   -2.411617 C.3        1 UNL1     0.0016
     19 C         -1.264815   6.532935   -3.901834 C.3        1 UNL1     0.0026
     20 N         -0.29733   5.598945   -4.460997 N.3        1 UNL1     -0.3018
     21 C         1.034566   5.645867   -3.854185 C.3        1 UNL1     0.0026
     22 C         0.876478   5.367578   -2.358371 C.3        1 UNL1     0.0016
     23 C         -0.315234   5.568499   -5.909926 C.3        1 UNL1     0.0012
     24 C         0.956752   6.217373   -6.478055 C.3        1 UNL1     -0.0339
     25 C         1.799795   5.203854   -7.269329 C.3        1 UNL1     -0.0615
     26 C         0.59198   7.423723   -7.325664 C.3        1 UNL1     -0.0615
     27 C         -1.10234   10.570364   2.433822 C.ar        1 UNL1     0.1347
     28 C         -1.313981   9.9122   3.632187 C.ar        1 UNL1     0.0342
     29 C         -1.0804   8.52139   3.584723 C.ar        1 UNL1     0.1435
     30 C         -0.713989   7.855161   2.414637 C.ar        1 UNL1     0.0774
     31 O         -1.350193   7.724975   4.64205 O.3        1 UNL1     -0.4436
     32 C         -1.447885   6.404983   4.086218 C.3        1 UNL1     0.3143
     33 C         -0.656403   6.45922   2.795161 C.2        1 UNL1     0.2504
     34 C         -1.91157   10.512465   4.874229 C.3        1 UNL1     -0.0327
     35 O         -0.747693   5.518627   4.967895 O.2        1 UNL1     -0.4528
     36 C         -2.483324   2.157116   4.658187 C.3        1 UNL1     0.0854
     37 C         -2.724927   1.275226   3.373112 C.3        1 UNL1     0.0236
     38 C         -2.176329   -0.228414   3.47237 C.3        1 UNL1     0.1131
     39 C         -0.686175   -0.491679   3.933241 C.3        1 UNL1     0.0200
     40 C         0.560091   0.443556   3.337761 C.3        1 UNL1     0.0661
     41 C         0.84769   0.791406   1.702556 C.3        1 UNL1     0.0091
     42 C         1.565712   2.282786   0.911586 C.3        1 UNL1     0.0661
     43 C         -0.686791   10.653106   -0.03359 C.2        1 UNL1     0.2131
     44 O         -1.19007   11.746906   -0.215378 O.2        1 UNL1     -0.2851
     45 O         -1.217575   11.958291   2.391207 O.3        1 UNL1     -0.5056
     46 O         -0.087522   5.557409   2.221606 O.2        1 UNL1     -0.2836
     47 C         3.853116   3.446501   1.640535 C.3        1 UNL1     -0.0566
     48 O         2.491516   1.516092   0.043148 O.3        1 UNL1     -0.3909
     49 C         -0.377373   0.413011   0.900351 C.3        1 UNL1     -0.0577
     50 O         0.726896   1.611097   4.116701 O.3        1 UNL1     -0.3910
     51 O         -1.671518   1.581457   5.656695 O.3        1 UNL1     -0.3753
     52 C         -2.610875   2.116679   2.060139 C.3        1 UNL1     -0.0564
     53 O         -2.716123   -1.136253   2.406173 O.3        1 UNL1     -0.4608
     54 C         -2.481352   -1.011446   1.061838 C.2        1 UNL1     0.3042
     55 O         -1.955111   -1.836296   0.315828 O.2        1 UNL1     -0.2512
     56 C         -2.995089   0.274014   0.478417 C.3        1 UNL1     0.0332
     57 C         -0.712273   -0.785251   5.505281 C.3        1 UNL1     -0.0567
     58 C         -2.940276   6.182356   3.747488 C.3        1 UNL1     0.0210
     59 C         -2.026624   0.249092   6.02353 C.3        1 UNL1     0.0372
     60 C         -1.939712   3.517276   4.39435 C.2        1 UNL1     -0.0208
     61 C         -0.959548   4.188939   5.000066 C.2        1 UNL1     0.0882
     62 H         1.878721   4.273859   1.680077 H        1 UNL1     0.0365
     63 H         2.190326   6.170111   0.989164 H        1 UNL1     0.0576
     64 H         3.854367   6.149996   -1.604548 H        1 UNL1     0.0615
     65 H         2.452073   8.43055   0.004957 H        1 UNL1     0.0622
     66 H         -3.48646   2.310234   5.080466 H        1 UNL1     0.0645
     67 H         -3.816381   1.11038   3.362412 H        1 UNL1     0.0362
     68 H         -2.806139   -0.600075   4.295005 H        1 UNL1     0.0741
     69 H         -0.399329   -1.489811   3.630157 H        1 UNL1     0.0359
     70 H         1.423184   -0.194647   3.607629 H        1 UNL1     0.0600
     71 H         1.53831   -0.036196   1.447455 H        1 UNL1     0.0348
     72 H         1.876182   2.319458   1.965901 H        1 UNL1     0.0602
     73 H         -2.548972   4.003057   3.673193 H        1 UNL1     0.0628
     74 H         -0.254941   3.748343   5.706212 H        1 UNL1     0.1022
     75 H         4.325288   9.060505   -3.570763 H        1 UNL1     0.0279
     76 H         2.810876   9.738015   -4.01891 H        1 UNL1     0.0279
     77 H         4.065013   10.69891   -3.136234 H        1 UNL1     0.0279
     78 H         0.804893   9.999889   -2.885843 H        1 UNL1     0.1553
     79 H         0.705847   8.024934   -3.012202 H        1 UNL1     0.1484
     80 H         -1.761817   5.246036   -2.219831 H        1 UNL1     0.0317
     81 H         -2.131943   6.945976   -1.968558 H        1 UNL1     0.0317
     82 H         -0.971528   7.573951   -4.102284 H        1 UNL1     0.0428
     83 H         -2.252276   6.407109   -4.346963 H        1 UNL1     0.0428
     84 H         1.71798   4.881322   -4.236583 H        1 UNL1     0.0428
     85 H         1.547951   6.593553   -4.067829 H        1 UNL1     0.0428
     86 H         1.875344   5.277878   -1.973393 H        1 UNL1     0.0317
     87 H         0.454902   4.366505   -2.205979 H        1 UNL1     0.0317
     88 H         -0.344413   4.518476   -6.229135 H        1 UNL1     0.0429
     89 H         -1.217387   6.050783   -6.307791 H        1 UNL1     0.0429
     90 H         1.562637   6.604958   -5.650471 H        1 UNL1     0.0308
     91 H         1.308025   4.227575   -7.315624 H        1 UNL1     0.0233
     92 H         1.981749   5.5623   -8.285212 H        1 UNL1     0.0233
     93 H         2.787399   5.041631   -6.820823 H        1 UNL1     0.0233
     94 H         -0.494932   7.558489   -7.342891 H        1 UNL1     0.0233
     95 H         1.037044   8.327577   -6.900307 H        1 UNL1     0.0233
     96 H         0.942288   7.308653   -8.355232 H        1 UNL1     0.0233
     97 H         -2.603172   11.317807   4.645443 H        1 UNL1     0.0280
     98 H         -2.486437   9.778104   5.45345 H        1 UNL1     0.0280
     99 H         -1.108506   10.917247   5.511674 H        1 UNL1     0.0280
     100 H         -0.410146   12.422521   2.526007 H        1 UNL1     0.2922
     101 H         3.88128   2.360585   1.727999 H        1 UNL1     0.0236
     102 H         3.988038   3.938005   2.603449 H        1 UNL1     0.0236
     103 H         4.757317   3.704395   1.06425 H        1 UNL1     0.0236
     104 H         3.383551   1.900198   0.151341 H        1 UNL1     0.2098
     105 H         -1.008697   -0.33635   1.371199 H        1 UNL1     0.0234
     106 H         -0.979555   1.256698   0.563458 H        1 UNL1     0.0234
     107 H         0.0   0.0   -0.0 H        1 UNL1     0.0234
     108 H         0.447482   2.36869   3.567383 H        1 UNL1     0.2098
     109 H         -1.963559   1.636359   1.313154 H        1 UNL1     0.0234
     110 H         -3.582771   2.345541   1.609825 H        1 UNL1     0.0234
     111 H         -2.166056   3.102829   2.248789 H        1 UNL1     0.0234
     112 H         -2.310757   0.63024   -0.297558 H        1 UNL1     0.0342
     113 H         -4.007212   0.171758   0.089836 H        1 UNL1     0.0342
     114 H         -3.019873   1.027721   1.277464 H        1 UNL1     0.0342
     115 H         -1.599388   -0.351545   5.987064 H        1 UNL1     0.0234
     116 H         -0.686727   -1.846833   5.759135 H        1 UNL1     0.0234
     117 H         0.098647   -0.282793   6.060154 H        1 UNL1     0.0234
     118 H         -3.0798   5.798302   2.721798 H        1 UNL1     0.0309
     119 H         -3.445684   5.514159   4.451958 H        1 UNL1     0.0309
     120 H         -3.515169   7.114882   3.748385 H        1 UNL1     0.0309
     121 H         -1.534717   -0.427373   5.325118 H        1 UNL1     0.0524
     122 H         -1.680962   -0.01185   7.037662 H        1 UNL1     0.0524
     123 H         -3.104147   0.120211   5.974249 H        1 UNL1     0.0524
@<TRIPOS>BOND
     1     1     2    1
     2     1    42    1
     3     2     3    2
     4     3     4    1
     5     4     5    2
     6     5     7    1
     7     6    75    1
     8     6    76    1
     9     6    77    1
    10     7     9   am
    11     9    10    1
    12    10    11    2
    13    10    43    1
    14    11    14    1
    15    11    15    1
    16    12    13   ar
    17    12    27   ar
    18    12    43    1
    19    13    14    1
    20    13    30   ar
    21    14    17    2
    22    15    16    1
    23    16    17    1
    24    16    18    1
    25    16    22    1
    26    18    19    1
    27    19    20    1
    28    20    21    1
    29    21    22    1
    30    23    24    1
    31    23    88    1
    32    23    89    1
    33    24    25    1
    34    24    26    1
    35    24    90    1
    36    25    91    1
    37    25    92    1
    38    25    93    1
    39    26    94    1
    40    26    95    1
    41    26    96    1
    42    27    28   ar
    43    28    29   ar
    44    29    30   ar
    45    29    31    1
    46    30    33    1
    47    31    32    1
    48    32    33    1
    49    32    35    1
    50    34    97    1
    51    34    98    1
    52    34    99    1
    53    35    61    1
    54    36    37    1
    55    36    60    1
    56    37    38    1
    57    38    39    1
    58    39    40    1
    59    40    41    1
    60    41    42    1
    61    45   100    1
    62    47   101    1
    63    47   102    1
    64    47   103    1
    65    48   104    1
    66    49   105    1
    67    49   106    1
    68    49   107    1
    69    50   108    1
    70    51    59    1
    71    52   109    1
    72    52   110    1
    73    52   111    1
    74    53    54    1
    75    54    55    2
    76    54    56    1
    77    56   112    1
    78    56   113    1
    79    56   114    1
    80    57   115    1
    81    57   116    1
    82    57   117    1
    83    58   118    1
    84    58   119    1
    85    58   120    1
    86    59   121    1
    87    59   122    1
    88    59   123    1
    89    60    61    2
    90     1    47    1
    91     1    62    1
    92     2    63    1
    93     3    64    1
    94     4    65    1
    95     5     6    1
    96     7     8    2
    97     9    78    1
    98    15    79    1
    99    18    80    1
   100    18    81    1
   101    19    82    1
   102    19    83    1
   103    20    23    1
   104    21    84    1
   105    21    85    1
   106    22    86    1
   107    22    87    1
   108    27    45    1
   109    28    34    1
   110    32    58    1
   111    33    46    2
   112    36    51    1
   113    36    66    1
   114    37    52    1
   115    37    67    1
   116    38    53    1
   117    38    68    1
   118    42    48    1
   119    42    72    1
   120    43    44    2
   121    60    73    1
   122    61    74    1
   123    39    69    1
   124    39    57    1
   125    40    70    1
   126    40    50    1
   127    41    71    1
   128    41    49    1
