@<TRIPOS>MOLECULE
*****
 123 128 0 0 0
SMALL
GASTEIGER

@<TRIPOS>ATOM
     1 C         -2.045723   2.138964   2.974145 C.3        1 UNL1     0.0009
     2 C         -3.394157   3.38874   2.735773 C.2        1 UNL1     -0.0787
     3 C         -3.837947   4.766356   2.700111 C.2        1 UNL1     -0.0649
     4 C         -5.361421   5.3577   2.257734 C.2        1 UNL1     -0.0542
     5 C         -6.082948   6.495806   1.82048 C.2        1 UNL1     0.0115
     6 C         -5.995101   8.031086   1.600207 C.3        1 UNL1     -0.0348
     7 C         -7.525907   6.289645   1.147904 C.2        1 UNL1     0.2441
     8 O         -8.573788   6.493102   1.745462 O.2        1 UNL1     -0.2702
     9 N         -7.505921   6.112874   -0.24655 N.am        1 UNL1     -0.2772
     10 C         -7.350662   4.78203   -0.559711 C.2        1 UNL1     0.1049
     11 C         -6.112623   4.322273   -0.549458 C.2        1 UNL1     0.0801
     12 C         -8.241906   2.504064   -0.036369 C.ar        1 UNL1     0.0753
     13 C         -6.882687   2.105063   0.1684 C.ar        1 UNL1     0.0305
     14 C         -5.766433   2.968604   -0.210183 C.2        1 UNL1     0.0924
     15 N         -4.945314   4.985625   -0.487159 N.pl3        1 UNL1     -0.3170
     16 C         -3.886489   4.030958   -0.681465 C.3        1 UNL1     0.1275
     17 N         -4.45905   2.725546   -0.185685 N.2        1 UNL1     -0.2557
     18 C         -3.697005   3.865918   -2.18631 C.3        1 UNL1     0.0016
     19 C         -3.429378   5.232934   -2.795598 C.3        1 UNL1     0.0026
     20 N         -2.237663   5.795999   -2.176082 N.3        1 UNL1     -0.3018
     21 C         -2.301108   5.936098   -0.719814 C.3        1 UNL1     0.0026
     22 C         -2.566019   4.550511   -0.128319 C.3        1 UNL1     0.0016
     23 C         -1.725162   6.951001   -2.88598 C.3        1 UNL1     0.0012
     24 C         -1.117101   6.529233   -4.232876 C.3        1 UNL1     -0.0339
     25 C         0.088015   7.40828   -4.60574 C.3        1 UNL1     -0.0615
     26 C         -0.745692   5.056941   -4.198374 C.3        1 UNL1     -0.0615
     27 C         -9.296465   1.629274   0.214169 C.ar        1 UNL1     0.1347
     28 C         -9.114943   0.323039   0.632317 C.ar        1 UNL1     0.0342
     29 C         -7.770869   -0.032173   0.874089 C.ar        1 UNL1     0.1435
     30 C         -6.706527   0.845029   0.662157 C.ar        1 UNL1     0.0774
     31 O         -7.421205   -1.300812   1.179536 O.3        1 UNL1     -0.4436
     32 C         -6.018164   -1.371446   0.883968 C.3        1 UNL1     0.3143
     33 C         -5.52573   0.059855   0.955388 C.2        1 UNL1     0.2504
     34 C         -10.173937   -0.743003   0.679073 C.3        1 UNL1     -0.0327
     35 O         -5.39166   -2.08231   1.958871 O.2        1 UNL1     -0.4528
     36 C         -2.395501   -3.84484   0.434205 C.3        1 UNL1     0.0854
     37 C         -1.17563   -3.232944   -0.356378 C.3        1 UNL1     0.0236
     38 C         0.26783   -3.602302   0.2367 C.3        1 UNL1     0.1131
     39 C         0.564277   -3.382712   1.774936 C.3        1 UNL1     0.0200
     40 C         0.065111   -1.987457   2.540791 C.3        1 UNL1     0.0661
     41 C         0.329922   -0.404023   1.992866 C.3        1 UNL1     0.0091
     42 C         -0.694768   1.106311   2.178087 C.3        1 UNL1     0.0661
     43 C         -8.487476   3.850628   -0.609709 C.2        1 UNL1     0.2131
     44 O         -9.515099   4.160006   -1.185047 O.2        1 UNL1     -0.2851
     45 O         -10.591246   2.111092   0.032976 O.3        1 UNL1     -0.5056
     46 O         -4.414249   0.462145   1.217354 O.2        1 UNL1     -0.2836
     47 C         -1.707728   1.991314   4.482104 C.3        1 UNL1     -0.0566
     48 O         0.43918   1.961101   2.605418 O.3        1 UNL1     -0.3909
     49 C         0.782594   -0.455973   0.550686 C.3        1 UNL1     -0.0577
     50 O         -1.261264   -2.120698   3.010578 O.3        1 UNL1     -0.3910
     51 O         -2.082292   -4.486816   1.649606 O.3        1 UNL1     -0.3753
     52 C         -1.502924   -1.812791   -0.922941 C.3        1 UNL1     -0.0564
     53 O         1.39716   -3.314826   -0.708973 O.3        1 UNL1     -0.4608
     54 C         2.713856   -3.174934   -0.355885 C.2        1 UNL1     0.3042
     55 O         3.58791   -4.040701   -0.37362 O.2        1 UNL1     -0.2512
     56 C         3.085944   -1.773042   0.03522 C.3        1 UNL1     0.0332
     57 C         0.306247   -4.774644   2.519328 C.3        1 UNL1     -0.0567
     58 C         -5.903223   -1.866268   -0.576672 C.3        1 UNL1     0.0210
     59 C         -2.187819   -5.90945   1.620605 C.3        1 UNL1     0.0372
     60 C         -3.499064   -2.889553   0.725295 C.2        1 UNL1     -0.0208
     61 C         -4.192837   -2.685684   1.845948 C.2        1 UNL1     0.0882
     62 H         -2.764735   1.346007   2.735498 H        1 UNL1     0.0365
     63 H         -4.256423   2.7336   2.595211 H        1 UNL1     0.0576
     64 H         -3.136645   5.596665   2.80906 H        1 UNL1     0.0615
     65 H         -5.995825   4.467192   2.254769 H        1 UNL1     0.0622
     66 H         -2.818613   -4.595013   -0.24863 H        1 UNL1     0.0645
     67 H         -1.169282   -3.787655   -1.310745 H        1 UNL1     0.0362
     68 H         0.250805   -4.693799   0.095752 H        1 UNL1     0.0741
     69 H         1.635692   -3.36457   1.923764 H        1 UNL1     0.0359
     70 H         0.688386   -2.037798   3.454057 H        1 UNL1     0.0600
     71 H         1.282135   -0.176847   2.51117 H        1 UNL1     0.0348
     72 H         -1.04011   0.40844   2.954638 H        1 UNL1     0.0602
     73 H         -3.793685   -2.411241   -0.175629 H        1 UNL1     0.0628
     74 H         -3.922099   -3.091514   2.821263 H        1 UNL1     0.1022
     75 H         -5.552475   8.53086   2.495384 H        1 UNL1     0.0279
     76 H         -5.344188   8.369516   0.797183 H        1 UNL1     0.0279
     77 H         -6.983573   8.510847   1.550668 H        1 UNL1     0.0279
     78 H         -6.714811   6.615345   -0.643722 H        1 UNL1     0.1553
     79 H         -4.845945   5.959851   -0.706114 H        1 UNL1     0.1484
     80 H         -2.863909   3.176269   -2.368249 H        1 UNL1     0.0317
     81 H         -4.583324   3.414737   -2.64514 H        1 UNL1     0.0317
     82 H         -4.29147   5.906189   -2.679671 H        1 UNL1     0.0428
     83 H         -3.299115   5.092381   -3.869063 H        1 UNL1     0.0428
     84 H         -1.365891   6.28585   -0.271645 H        1 UNL1     0.0428
     85 H         -3.041393   6.688012   -0.413352 H        1 UNL1     0.0428
     86 H         -2.473693   4.667359   0.935547 H        1 UNL1     0.0317
     87 H         -1.742734   3.871375   -0.381441 H        1 UNL1     0.0317
     88 H         -2.56364   7.632833   -3.079257 H        1 UNL1     0.0429
     89 H         -0.996321   7.501891   -2.277634 H        1 UNL1     0.0429
     90 H         -1.877265   6.628082   -5.016836 H        1 UNL1     0.0308
     91 H         0.764913   7.536503   -3.755756 H        1 UNL1     0.0233
     92 H         0.640339   6.972261   -5.441464 H        1 UNL1     0.0233
     93 H         -0.211647   8.412821   -4.928131 H        1 UNL1     0.0233
     94 H         -0.276457   4.763528   -5.143658 H        1 UNL1     0.0233
     95 H         -0.028373   4.871305   -3.394039 H        1 UNL1     0.0233
     96 H         -1.625411   4.427097   -4.039127 H        1 UNL1     0.0233
     97 H         -9.914662   -1.601994   0.067403 H        1 UNL1     0.0280
     98 H         -10.325169   -1.131829   1.694553 H        1 UNL1     0.0280
     99 H         -11.128034   -0.331807   0.31068 H        1 UNL1     0.0280
     100 H         -10.762346   2.939001   0.446393 H        1 UNL1     0.2922
     101 H         -2.130428   1.062427   4.8644 H        1 UNL1     0.0236
     102 H         -2.010588   2.853255   5.075666 H        1 UNL1     0.0236
     103 H         -0.622772   1.897532   4.656079 H        1 UNL1     0.0236
     104 H         0.506214   1.897525   3.578267 H        1 UNL1     0.2098
     105 H         1.697463   0.094794   0.347018 H        1 UNL1     0.0234
     106 H         0.843463   -1.458902   0.128364 H        1 UNL1     0.0234
     107 H         0.0   0.0   -0.0 H        1 UNL1     0.0234
     108 H         -1.459206   -3.076072   3.053549 H        1 UNL1     0.2098
     109 H         -2.346446   -1.830123   -1.62713 H        1 UNL1     0.0234
     110 H         -1.694173   -1.070753   -0.140288 H        1 UNL1     0.0234
     111 H         -0.65595   -1.395772   -1.483901 H        1 UNL1     0.0234
     112 H         4.035694   -1.495914   -0.432243 H        1 UNL1     0.0342
     113 H         2.304183   -1.057133   -0.214115 H        1 UNL1     0.0342
     114 H         3.226401   -1.746584   1.124594 H        1 UNL1     0.0342
     115 H         0.858839   -5.598737   2.047417 H        1 UNL1     0.0234
     116 H         0.569656   -4.766966   3.578859 H        1 UNL1     0.0234
     117 H         -0.73274   -5.135675   2.429309 H        1 UNL1     0.0234
     118 H         -5.497956   -2.891547   -0.636403 H        1 UNL1     0.0309
     119 H         -6.852241   -1.82403   -1.120531 H        1 UNL1     0.0309
     120 H         -5.190234   -1.278203   -1.164834 H        1 UNL1     0.0309
     121 H         -3.123584   -6.180651   2.108612 H        1 UNL1     0.0524
     122 H         -2.222887   -6.305485   0.592032 H        1 UNL1     0.0524
     123 H         -1.34842   -6.359326   2.143209 H        1 UNL1     0.0524
@<TRIPOS>BOND
     1     1     2    1
     2     1    42    1
     3     2     3    2
     4     3     4    1
     5     4     5    2
     6     5     7    1
     7     6    75    1
     8     6    76    1
     9     6    77    1
    10     7     9   am
    11     9    10    1
    12    10    11    2
    13    10    43    1
    14    11    14    1
    15    11    15    1
    16    12    13   ar
    17    12    27   ar
    18    12    43    1
    19    13    14    1
    20    13    30   ar
    21    14    17    2
    22    15    16    1
    23    16    17    1
    24    16    18    1
    25    16    22    1
    26    18    19    1
    27    19    20    1
    28    20    21    1
    29    21    22    1
    30    23    24    1
    31    23    88    1
    32    23    89    1
    33    24    25    1
    34    24    26    1
    35    24    90    1
    36    25    91    1
    37    25    92    1
    38    25    93    1
    39    26    94    1
    40    26    95    1
    41    26    96    1
    42    27    28   ar
    43    28    29   ar
    44    29    30   ar
    45    29    31    1
    46    30    33    1
    47    31    32    1
    48    32    33    1
    49    32    35    1
    50    34    97    1
    51    34    98    1
    52    34    99    1
    53    35    61    1
    54    36    37    1
    55    36    60    1
    56    37    38    1
    57    38    39    1
    58    39    40    1
    59    40    41    1
    60    41    42    1
    61    45   100    1
    62    47   101    1
    63    47   102    1
    64    47   103    1
    65    48   104    1
    66    49   105    1
    67    49   106    1
    68    49   107    1
    69    50   108    1
    70    51    59    1
    71    52   109    1
    72    52   110    1
    73    52   111    1
    74    53    54    1
    75    54    55    2
    76    54    56    1
    77    56   112    1
    78    56   113    1
    79    56   114    1
    80    57   115    1
    81    57   116    1
    82    57   117    1
    83    58   118    1
    84    58   119    1
    85    58   120    1
    86    59   121    1
    87    59   122    1
    88    59   123    1
    89    60    61    2
    90     1    47    1
    91     1    62    1
    92     2    63    1
    93     3    64    1
    94     4    65    1
    95     5     6    1
    96     7     8    2
    97     9    78    1
    98    15    79    1
    99    18    80    1
   100    18    81    1
   101    19    82    1
   102    19    83    1
   103    20    23    1
   104    21    84    1
   105    21    85    1
   106    22    86    1
   107    22    87    1
   108    27    45    1
   109    28    34    1
   110    32    58    1
   111    33    46    2
   112    36    51    1
   113    36    66    1
   114    37    52    1
   115    37    67    1
   116    38    53    1
   117    38    68    1
   118    42    48    1
   119    42    72    1
   120    43    44    2
   121    60    73    1
   122    61    74    1
   123    39    69    1
   124    39    57    1
   125    40    70    1
   126    40    50    1
   127    41    71    1
   128    41    49    1
