@<TRIPOS>MOLECULE
*****
 123 128 0 0 0
SMALL
GASTEIGER

@<TRIPOS>ATOM
     1 C         4.999557   1.984383   -0.787657 C.3        1 UNL1     0.0009
     2 C         6.031239   3.05858   -1.891636 C.2        1 UNL1     -0.0787
     3 C         7.068217   3.202739   -2.891607 C.2        1 UNL1     -0.0649
     4 C         7.548571   4.61244   -3.696816 C.2        1 UNL1     -0.0542
     5 C         8.214753   5.129622   -4.835149 C.2        1 UNL1     0.0115
     6 C         9.105481   4.750353   -6.05009 C.3        1 UNL1     -0.0348
     7 C         7.967378   6.660158   -5.251387 C.2        1 UNL1     0.2441
     8 O         8.770138   7.552297   -5.014342 O.2        1 UNL1     -0.2702
     9 N         6.892441   6.864126   -6.134031 N.am        1 UNL1     -0.2772
     10 C         5.721181   7.036062   -5.432667 C.2        1 UNL1     0.1049
     11 C         5.107834   5.932696   -5.04458 C.2        1 UNL1     0.0801
     12 C         4.71894   8.309427   -3.527047 C.ar        1 UNL1     0.0753
     13 C         4.250233   7.049952   -3.034456 C.ar        1 UNL1     0.0305
     14 C         4.317614   5.837493   -3.847139 C.2        1 UNL1     0.0924
     15 N         5.323946   4.654163   -5.398381 N.pl3        1 UNL1     -0.3170
     16 C         4.273014   3.855952   -4.825096 C.3        1 UNL1     0.1275
     17 N         3.846898   4.619401   -3.594935 N.2        1 UNL1     -0.2557
     18 C         3.08977   3.908037   -5.786825 C.3        1 UNL1     0.0016
     19 C         3.555808   3.442043   -7.156952 C.3        1 UNL1     0.0026
     20 N         4.075328   2.086663   -7.038331 N.3        1 UNL1     -0.3018
     21 C         5.177526   1.924262   -6.087987 C.3        1 UNL1     0.0026
     22 C         4.685887   2.393914   -4.717727 C.3        1 UNL1     0.0016
     23 C         4.266544   1.441647   -8.322089 C.3        1 UNL1     0.0012
     24 C         3.854217   2.383105   -9.464631 C.3        1 UNL1     -0.0339
     25 C         3.386095   3.746172   -8.928938 C.3        1 UNL1     -0.0615
     26 C         4.997132   2.533693   -10.453492 C.3        1 UNL1     -0.0615
     27 C         4.541682   9.481596   -2.795804 C.ar        1 UNL1     0.1347
     28 C         3.87809   9.525334   -1.582633 C.ar        1 UNL1     0.0342
     29 C         3.46852   8.266359   -1.094373 C.ar        1 UNL1     0.1435
     30 C         3.671297   7.079056   -1.79894 C.ar        1 UNL1     0.0774
     31 O         2.713272   8.154383   0.020108 O.3        1 UNL1     -0.4436
     32 C         2.120912   6.850023   -0.072772 C.3        1 UNL1     0.3143
     33 C         3.039184   6.061952   -0.984876 C.2        1 UNL1     0.2504
     34 C         3.431127   10.7693   -0.866483 C.3        1 UNL1     -0.0327
     35 O         2.206842   6.249728   1.225502 O.2        1 UNL1     -0.4528
     36 C         -0.780167   3.923213   1.496043 C.3        1 UNL1     0.0854
     37 C         -1.192172   2.718426   0.56531 C.3        1 UNL1     0.0236
     38 C         -1.397018   1.319313   1.321793 C.3        1 UNL1     0.1131
     39 C         -0.272009   0.780707   2.29469 C.3        1 UNL1     0.0200
     40 C         1.33547   0.867827   1.857818 C.3        1 UNL1     0.0661
     41 C         1.993592   0.350758   0.382309 C.3        1 UNL1     0.0091
     42 C         3.414347   1.000007   -0.579634 C.3        1 UNL1     0.0661
     43 C         5.320583   8.339919   -4.883275 C.2        1 UNL1     0.2131
     44 O         5.394458   9.346616   -5.564334 O.2        1 UNL1     -0.2851
     45 O         5.067959   10.65807   -3.325314 O.3        1 UNL1     -0.5056
     46 O         3.224073   4.865864   -1.017174 O.2        1 UNL1     -0.2836
     47 C         5.839835   1.486985   0.419202 C.3        1 UNL1     -0.0566
     48 O         4.019123   -0.335276   -0.804093 O.3        1 UNL1     -0.3909
     49 C         0.866891   0.115777   -0.598928 C.3        1 UNL1     -0.0577
     50 O         1.88651   2.117669   2.221096 O.3        1 UNL1     -0.3910
     51 O         -0.47459   3.593044   2.832098 O.3        1 UNL1     -0.3753
     52 C         -0.515066   2.811645   -0.841028 C.3        1 UNL1     -0.0564
     53 O         -2.116716   0.291277   0.498689 O.3        1 UNL1     -0.4608
     54 C         -2.639887   0.497364   -0.751011 C.2        1 UNL1     0.3042
     55 O         -2.106296   0.256276   -1.833137 O.2        1 UNL1     -0.2512
     56 C         -4.045647   1.026783   -0.734669 C.3        1 UNL1     0.0332
     57 C         -0.665795   1.224632   3.779963 C.3        1 UNL1     -0.0567
     58 C         0.757819   7.037903   -0.778609 C.3        1 UNL1     0.0210
     59 C         -1.49982   2.880714   3.523009 C.3        1 UNL1     0.0372
     60 C         0.347902   4.751704   0.989856 C.2        1 UNL1     -0.0208
     61 C         1.420016   5.231045   1.621955 C.2        1 UNL1     0.0882
     62 H         4.46447   2.879639   -0.448673 H        1 UNL1     0.0365
     63 H         5.693124   4.050426   -1.584408 H        1 UNL1     0.0576
     64 H         7.545309   2.334067   -3.350844 H        1 UNL1     0.0615
     65 H         7.08554   5.414876   -3.116143 H        1 UNL1     0.0622
     66 H         -1.659826   4.582174   1.500178 H        1 UNL1     0.0645
     67 H         -2.226064   2.956537   0.260467 H        1 UNL1     0.0362
     68 H         -2.243609   1.584661   1.97325 H        1 UNL1     0.0741
     69 H         -0.419936   -0.280519   2.44411 H        1 UNL1     0.0359
     70 H         1.769186   0.153008   2.583066 H        1 UNL1     0.0600
     71 H         2.270481   -0.688392   0.647747 H        1 UNL1     0.0348
     72 H         3.543795   1.377906   0.44494 H        1 UNL1     0.0602
     73 H         0.138331   5.056407   -0.005375 H        1 UNL1     0.0628
     74 H         1.736113   4.924265   2.619555 H        1 UNL1     0.1022
     75 H         10.059515   4.282966   -5.705993 H        1 UNL1     0.0279
     76 H         8.70726   3.998397   -6.727623 H        1 UNL1     0.0279
     77 H         9.479024   5.629953   -6.59458 H        1 UNL1     0.0279
     78 H         6.776847   6.045115   -6.727273 H        1 UNL1     0.1553
     79 H         5.824696   4.381814   -6.224219 H        1 UNL1     0.1484
     80 H         2.285668   3.270911   -5.399194 H        1 UNL1     0.0317
     81 H         2.682277   4.922654   -5.851269 H        1 UNL1     0.0317
     82 H         4.310783   4.119511   -7.582348 H        1 UNL1     0.0428
     83 H         2.697165   3.488756   -7.827474 H        1 UNL1     0.0428
     84 H         5.495677   0.885094   -5.958675 H        1 UNL1     0.0428
     85 H         6.086667   2.441772   -6.424086 H        1 UNL1     0.0428
     86 H         5.467255   2.137927   -4.026408 H        1 UNL1     0.0317
     87 H         3.84307   1.773571   -4.389199 H        1 UNL1     0.0317
     88 H         5.333441   1.206631   -8.430682 H        1 UNL1     0.0429
     89 H         3.720692   0.490897   -8.375895 H        1 UNL1     0.0429
     90 H         3.030351   1.927007   -10.026264 H        1 UNL1     0.0308
     91 H         4.143137   4.519018   -9.092329 H        1 UNL1     0.0233
     92 H         2.45337   4.050483   -9.409592 H        1 UNL1     0.0233
     93 H         3.18178   3.7237   -7.851633 H        1 UNL1     0.0233
     94 H         5.002361   3.545323   -10.873509 H        1 UNL1     0.0233
     95 H         5.953052   2.374093   -9.946829 H        1 UNL1     0.0233
     96 H         4.909903   1.818419   -11.276136 H        1 UNL1     0.0233
     97 H         3.184701   10.574714   0.173056 H        1 UNL1     0.0280
     98 H         4.211853   11.540974   -0.850902 H        1 UNL1     0.0280
     99 H         2.536416   11.179535   -1.362766 H        1 UNL1     0.0280
     100 H         5.946915   10.852161   -3.050746 H        1 UNL1     0.2922
     101 H         6.871729   1.32657   0.107565 H        1 UNL1     0.0236
     102 H         5.416939   0.606747   0.902239 H        1 UNL1     0.0236
     103 H         5.903478   2.243283   1.2193 H        1 UNL1     0.0236
     104 H         3.987465   -0.819747   0.043997 H        1 UNL1     0.2098
     105 H         0.689603   0.94019   -1.285021 H        1 UNL1     0.0234
     106 H         0.928495   -0.824688   -1.146337 H        1 UNL1     0.0234
     107 H         0.0   -0.0   0.0 H        1 UNL1     0.0234
     108 H         2.73771   2.207158   1.750756 H        1 UNL1     0.2098
     109 H         -0.457937   1.834564   -1.340788 H        1 UNL1     0.0234
     110 H         -1.000144   3.535092   -1.505157 H        1 UNL1     0.0234
     111 H         0.520624   3.16949   -0.768648 H        1 UNL1     0.0234
     112 H         -4.654308   0.489257   -1.468115 H        1 UNL1     0.0342
     113 H         -4.491743   0.973727   0.257312 H        1 UNL1     0.0342
     114 H         -4.017406   2.084454   -1.03081 H        1 UNL1     0.0342
     115 H         -0.345471   0.484307   4.525953 H        1 UNL1     0.0234
     116 H         -0.254102   2.190805   4.078402 H        1 UNL1     0.0234
     117 H         -1.754716   1.248869   3.957742 H        1 UNL1     0.0234
     118 H         0.699831   7.998839   -1.319207 H        1 UNL1     0.0309
     119 H         0.515515   6.223529   -1.468744 H        1 UNL1     0.0309
     120 H         -0.077213   7.094959   -0.071805 H        1 UNL1     0.0309
     121 H         -1.03888   2.011899   3.992104 H        1 UNL1     0.0524
     122 H         -1.962105   3.483429   4.322424 H        1 UNL1     0.0524
     123 H         -2.272489   2.565402   2.827556 H        1 UNL1     0.0524
@<TRIPOS>BOND
     1     1     2    1
     2     1    42    1
     3     2     3    2
     4     3     4    1
     5     4     5    2
     6     5     7    1
     7     6    75    1
     8     6    76    1
     9     6    77    1
    10     7     9   am
    11     9    10    1
    12    10    11    2
    13    10    43    1
    14    11    14    1
    15    11    15    1
    16    12    13   ar
    17    12    27   ar
    18    12    43    1
    19    13    14    1
    20    13    30   ar
    21    14    17    2
    22    15    16    1
    23    16    17    1
    24    16    18    1
    25    16    22    1
    26    18    19    1
    27    19    20    1
    28    20    21    1
    29    21    22    1
    30    23    24    1
    31    23    88    1
    32    23    89    1
    33    24    25    1
    34    24    26    1
    35    24    90    1
    36    25    91    1
    37    25    92    1
    38    25    93    1
    39    26    94    1
    40    26    95    1
    41    26    96    1
    42    27    28   ar
    43    28    29   ar
    44    29    30   ar
    45    29    31    1
    46    30    33    1
    47    31    32    1
    48    32    33    1
    49    32    35    1
    50    34    97    1
    51    34    98    1
    52    34    99    1
    53    35    61    1
    54    36    37    1
    55    36    60    1
    56    37    38    1
    57    38    39    1
    58    39    40    1
    59    40    41    1
    60    41    42    1
    61    45   100    1
    62    47   101    1
    63    47   102    1
    64    47   103    1
    65    48   104    1
    66    49   105    1
    67    49   106    1
    68    49   107    1
    69    50   108    1
    70    51    59    1
    71    52   109    1
    72    52   110    1
    73    52   111    1
    74    53    54    1
    75    54    55    2
    76    54    56    1
    77    56   112    1
    78    56   113    1
    79    56   114    1
    80    57   115    1
    81    57   116    1
    82    57   117    1
    83    58   118    1
    84    58   119    1
    85    58   120    1
    86    59   121    1
    87    59   122    1
    88    59   123    1
    89    60    61    2
    90     1    47    1
    91     1    62    1
    92     2    63    1
    93     3    64    1
    94     4    65    1
    95     5     6    1
    96     7     8    2
    97     9    78    1
    98    15    79    1
    99    18    80    1
   100    18    81    1
   101    19    82    1
   102    19    83    1
   103    20    23    1
   104    21    84    1
   105    21    85    1
   106    22    86    1
   107    22    87    1
   108    27    45    1
   109    28    34    1
   110    32    58    1
   111    33    46    2
   112    36    51    1
   113    36    66    1
   114    37    52    1
   115    37    67    1
   116    38    53    1
   117    38    68    1
   118    42    48    1
   119    42    72    1
   120    43    44    2
   121    60    73    1
   122    61    74    1
   123    39    69    1
   124    39    57    1
   125    40    70    1
   126    40    50    1
   127    41    71    1
   128    41    49    1
