@<TRIPOS>MOLECULE
*****
 123 128 0 0 0
SMALL
GASTEIGER

@<TRIPOS>ATOM
     1 C         4.075959   -0.29866   0.598571 C.3        1 UNL1     0.0009
     2 C         4.967978   -1.011723   2.059009 C.2        1 UNL1     -0.0787
     3 C         5.615734   -0.838932   3.342209 C.2        1 UNL1     -0.0649
     4 C         6.213041   -2.03901   4.376324 C.2        1 UNL1     -0.0542
     5 C         6.597203   -2.33961   5.706413 C.2        1 UNL1     0.0115
     6 C         6.885009   -1.720222   7.101709 C.3        1 UNL1     -0.0348
     7 C         6.705843   -3.877123   6.155011 C.2        1 UNL1     0.2441
     8 O         7.77303   -4.465899   6.259808 O.2        1 UNL1     -0.2702
     9 N         5.518501   -4.425618   6.670301 N.am        1 UNL1     -0.2772
     10 C         4.749613   -4.945983   5.654745 C.2        1 UNL1     0.1049
     11 C         3.990868   -4.085919   4.999903 C.2        1 UNL1     0.0801
     12 C         4.858115   -6.436535   3.6488 C.ar        1 UNL1     0.0753
     13 C         4.215383   -5.380856   2.926965 C.ar        1 UNL1     0.0305
     14 C         3.643124   -4.223756   3.611576 C.2        1 UNL1     0.0924
     15 N         3.680757   -2.811033   5.291493 N.pl3        1 UNL1     -0.3170
     16 C         2.683054   -2.375306   4.350757 C.3        1 UNL1     0.1275
     17 N         2.933102   -3.212243   3.120011 N.2        1 UNL1     -0.2557
     18 C         1.326847   -2.8153   4.89372 C.3        1 UNL1     0.0016
     19 C         1.157538   -2.250447   6.295099 C.3        1 UNL1     0.0026
     20 N         1.249222   -0.798491   6.228429 N.3        1 UNL1     -0.3018
     21 C         2.495606   -0.279623   5.661268 C.3        1 UNL1     0.0026
     22 C         2.643143   -0.856026   4.252053 C.3        1 UNL1     0.0016
     23 C         0.807405   -0.149011   7.446468 C.3        1 UNL1     0.0012
     24 C         0.792649   -1.147628   8.614501 C.3        1 UNL1     -0.0339
     25 C         1.738844   -0.706671   9.743363 C.3        1 UNL1     -0.0615
     26 C         -0.627388   -1.339008   9.118137 C.3        1 UNL1     -0.0615
     27 C         5.29327   -7.591541   3.003262 C.ar        1 UNL1     0.1347
     28 C         5.106286   -7.820944   1.651795 C.ar        1 UNL1     0.0342
     29 C         4.515261   -6.747149   0.95264 C.ar        1 UNL1     0.1435
     30 C         4.107023   -5.569256   1.579642 C.ar        1 UNL1     0.0774
     31 O         4.166793   -6.85951   -0.347726 O.3        1 UNL1     -0.4436
     32 C         3.20952   -5.810682   -0.558583 C.3        1 UNL1     0.3143
     33 C         3.496051   -4.789384   0.523575 C.2        1 UNL1     0.2504
     34 C         5.316826   -9.129466   0.942188 C.3        1 UNL1     -0.0327
     35 O         3.525611   -5.190985   -1.811306 O.2        1 UNL1     -0.4528
     36 C         0.230976   -3.921847   -3.205134 C.3        1 UNL1     0.0854
     37 C         -0.806619   -2.925443   -2.558529 C.3        1 UNL1     0.0236
     38 C         -1.169794   -1.649311   -3.459271 C.3        1 UNL1     0.1131
     39 C         -0.010045   -0.765933   -4.073189 C.3        1 UNL1     0.0200
     40 C         1.314183   -0.348943   -3.148539 C.3        1 UNL1     0.0661
     41 C         1.267144   0.323125   -1.591708 C.3        1 UNL1     0.0091
     42 C         2.424531   0.138548   -0.1804 C.3        1 UNL1     0.0661
     43 C         4.965727   -6.299651   5.122551 C.2        1 UNL1     0.2131
     44 O         5.116784   -7.243496   5.876922 O.2        1 UNL1     -0.2851
     45 O         5.950333   -8.55096   3.77087 O.3        1 UNL1     -0.5056
     46 O         3.287465   -3.596858   0.508496 O.2        1 UNL1     -0.2836
     47 C         5.069226   0.459905   -0.322289 C.3        1 UNL1     -0.0566
     48 O         2.487253   1.592253   0.105824 O.3        1 UNL1     -0.3909
     49 C         -0.132043   0.172973   -1.037432 C.3        1 UNL1     -0.0577
     50 O         2.305695   -1.354288   -3.211053 O.3        1 UNL1     -0.3910
     51 O         0.838182   -3.488418   -4.401324 O.3        1 UNL1     -0.3753
     52 C         -0.628628   -2.825139   -1.008301 C.3        1 UNL1     -0.0564
     53 O         -2.394255   -0.915802   -2.995605 O.3        1 UNL1     -0.4608
     54 C         -2.508388   0.444511   -2.875388 C.2        1 UNL1     0.3042
     55 O         -2.735973   1.087299   -1.851246 O.2        1 UNL1     -0.2512
     56 C         -2.263911   1.184369   -4.159737 C.3        1 UNL1     0.0332
     57 C         0.254659   -1.284997   -5.562712 C.3        1 UNL1     -0.0567
     58 C         1.816642   -6.43173   -0.302223 C.3        1 UNL1     0.0210
     59 C         1.640476   -2.315247   -4.275385 C.3        1 UNL1     0.0372
     60 C         1.32876   -4.360761   -2.30104 C.2        1 UNL1     -0.0208
     61 C         2.639967   -4.46587   -2.521115 C.2        1 UNL1     0.0882
     62 H         3.979052   -1.310875   0.187789 H        1 UNL1     0.0365
     63 H         5.06653   -2.053963   1.748379 H        1 UNL1     0.0576
     64 H         5.629729   0.12762   3.850823 H        1 UNL1     0.0615
     65 H         6.23094   -2.936127   3.75155 H        1 UNL1     0.0622
     66 H         -0.355125   -4.824601   -3.427771 H        1 UNL1     0.0645
     67 H         -1.759162   -3.483107   -2.573794 H        1 UNL1     0.0362
     68 H         -1.635721   -2.156702   -4.317751 H        1 UNL1     0.0741
     69 H         -0.41667   0.196823   -4.352771 H        1 UNL1     0.0359
     70 H         1.720813   0.479001   -3.760275 H        1 UNL1     0.0600
     71 H         1.285369   1.401092   -1.845896 H        1 UNL1     0.0348
     72 H         2.98813   -0.160902   -1.075945 H        1 UNL1     0.0602
     73 H         0.910485   -4.733671   -1.399246 H        1 UNL1     0.0628
     74 H         3.153783   -4.057323   -3.391931 H        1 UNL1     0.1022
     75 H         6.068312   -1.974629   7.819564 H        1 UNL1     0.0279
     76 H         7.771786   -2.080031   7.618654 H        1 UNL1     0.0279
     77 H         6.835596   -0.621476   7.097634 H        1 UNL1     0.0279
     78 H         4.973275   -3.695643   7.12411 H        1 UNL1     0.1553
     79 H         3.778191   -2.409264   6.205835 H        1 UNL1     0.1484
     80 H         0.538882   -2.457782   4.219881 H        1 UNL1     0.0317
     81 H         1.249476   -3.907647   4.914771 H        1 UNL1     0.0317
     82 H         1.901507   -2.662416   6.992741 H        1 UNL1     0.0428
     83 H         0.184982   -2.57771   6.663997 H        1 UNL1     0.0428
     84 H         2.506567   0.808967   5.548739 H        1 UNL1     0.0428
     85 H         3.358008   -0.48959   6.30895 H        1 UNL1     0.0428
     86 H         3.489615   -0.354245   3.821137 H        1 UNL1     0.0317
     87 H         1.806412   -0.527701   3.623419 H        1 UNL1     0.0317
     88 H         1.517778   0.654145   7.682276 H        1 UNL1     0.0429
     89 H         -0.176059   0.320084   7.314098 H        1 UNL1     0.0429
     90 H         1.116562   -2.130124   8.251189 H        1 UNL1     0.0308
     91 H         1.412088   -1.097529   10.711642 H        1 UNL1     0.0233
     92 H         2.759068   -1.04412   9.546186 H        1 UNL1     0.0233
     93 H         1.791323   0.38436   9.842016 H        1 UNL1     0.0233
     94 H         -1.244567   -0.476333   8.844795 H        1 UNL1     0.0233
     95 H         -1.069492   -2.228382   8.660402 H        1 UNL1     0.0233
     96 H         -0.653308   -1.451764   10.205603 H        1 UNL1     0.0233
     97 H         6.129304   -9.703204   1.378003 H        1 UNL1     0.0280
     98 H         4.430871   -9.775707   0.994264 H        1 UNL1     0.0280
     99 H         5.556572   -8.940486   -0.117012 H        1 UNL1     0.0280
     100 H         6.334731   -8.221584   4.564199 H        1 UNL1     0.2922
     101 H         5.17662   1.488591   0.021117 H        1 UNL1     0.0236
     102 H         4.801889   0.406668   -1.377125 H        1 UNL1     0.0236
     103 H         6.087274   0.039292   -0.268831 H        1 UNL1     0.0236
     104 H         3.132217   1.723073   0.828236 H        1 UNL1     0.2098
     105 H         -0.757063   1.0552   -1.150738 H        1 UNL1     0.0234
     106 H         -0.664818   -0.713981   -1.380055 H        1 UNL1     0.0234
     107 H         0.0   -0.0   0.0 H        1 UNL1     0.0234
     108 H         1.84823   -2.203972   -3.361162 H        1 UNL1     0.2098
     109 H         -1.350528   -2.134473   -0.550531 H        1 UNL1     0.0234
     110 H         -0.681367   -3.796694   -0.505267 H        1 UNL1     0.0234
     111 H         0.363661   -2.439437   -0.738964 H        1 UNL1     0.0234
     112 H         -1.908615   0.490148   -4.92731 H        1 UNL1     0.0342
     113 H         -3.148919   1.721222   -4.497959 H        1 UNL1     0.0342
     114 H         -1.472164   1.925459   -3.98342 H        1 UNL1     0.0342
     115 H         -0.536739   -1.966216   -5.904498 H        1 UNL1     0.0234
     116 H         0.342473   -0.486452   -6.302079 H        1 UNL1     0.0234
     117 H         1.145007   -1.930979   -5.651751 H        1 UNL1     0.0234
     118 H         1.636402   -6.616768   0.77122 H        1 UNL1     0.0309
     119 H         0.996604   -5.828325   -0.704272 H        1 UNL1     0.0309
     120 H         1.710356   -7.42536   -0.75112 H        1 UNL1     0.0309
     121 H         2.599456   -2.51903   -4.750975 H        1 UNL1     0.0524
     122 H         1.194185   -1.446291   -4.787026 H        1 UNL1     0.0524
     123 H         1.786451   -2.070491   -3.22711 H        1 UNL1     0.0524
@<TRIPOS>BOND
     1     1     2    1
     2     1    42    1
     3     2     3    2
     4     3     4    1
     5     4     5    2
     6     5     7    1
     7     6    75    1
     8     6    76    1
     9     6    77    1
    10     7     9   am
    11     9    10    1
    12    10    11    2
    13    10    43    1
    14    11    14    1
    15    11    15    1
    16    12    13   ar
    17    12    27   ar
    18    12    43    1
    19    13    14    1
    20    13    30   ar
    21    14    17    2
    22    15    16    1
    23    16    17    1
    24    16    18    1
    25    16    22    1
    26    18    19    1
    27    19    20    1
    28    20    21    1
    29    21    22    1
    30    23    24    1
    31    23    88    1
    32    23    89    1
    33    24    25    1
    34    24    26    1
    35    24    90    1
    36    25    91    1
    37    25    92    1
    38    25    93    1
    39    26    94    1
    40    26    95    1
    41    26    96    1
    42    27    28   ar
    43    28    29   ar
    44    29    30   ar
    45    29    31    1
    46    30    33    1
    47    31    32    1
    48    32    33    1
    49    32    35    1
    50    34    97    1
    51    34    98    1
    52    34    99    1
    53    35    61    1
    54    36    37    1
    55    36    60    1
    56    37    38    1
    57    38    39    1
    58    39    40    1
    59    40    41    1
    60    41    42    1
    61    45   100    1
    62    47   101    1
    63    47   102    1
    64    47   103    1
    65    48   104    1
    66    49   105    1
    67    49   106    1
    68    49   107    1
    69    50   108    1
    70    51    59    1
    71    52   109    1
    72    52   110    1
    73    52   111    1
    74    53    54    1
    75    54    55    2
    76    54    56    1
    77    56   112    1
    78    56   113    1
    79    56   114    1
    80    57   115    1
    81    57   116    1
    82    57   117    1
    83    58   118    1
    84    58   119    1
    85    58   120    1
    86    59   121    1
    87    59   122    1
    88    59   123    1
    89    60    61    2
    90     1    47    1
    91     1    62    1
    92     2    63    1
    93     3    64    1
    94     4    65    1
    95     5     6    1
    96     7     8    2
    97     9    78    1
    98    15    79    1
    99    18    80    1
   100    18    81    1
   101    19    82    1
   102    19    83    1
   103    20    23    1
   104    21    84    1
   105    21    85    1
   106    22    86    1
   107    22    87    1
   108    27    45    1
   109    28    34    1
   110    32    58    1
   111    33    46    2
   112    36    51    1
   113    36    66    1
   114    37    52    1
   115    37    67    1
   116    38    53    1
   117    38    68    1
   118    42    48    1
   119    42    72    1
   120    43    44    2
   121    60    73    1
   122    61    74    1
   123    39    69    1
   124    39    57    1
   125    40    70    1
   126    40    50    1
   127    41    71    1
   128    41    49    1
