@<TRIPOS>MOLECULE
*****
 123 128 0 0 0
SMALL
GASTEIGER

@<TRIPOS>ATOM
     1 C         3.74869   3.632553   1.070073 C.3        1 UNL1     0.0009
     2 C         4.234187   5.378054   0.676936 C.2        1 UNL1     -0.0787
     3 C         5.14283   6.319977   0.057909 C.2        1 UNL1     -0.0649
     4 C         4.969702   7.998858   -0.075297 C.2        1 UNL1     -0.0542
     5 C         5.386197   9.156954   -0.777027 C.2        1 UNL1     0.0115
     6 C         6.414906   9.700449   -1.806442 C.3        1 UNL1     -0.0348
     7 C         4.49079   10.48604   -0.683416 C.2        1 UNL1     0.2441
     8 O         4.784772   11.437791   0.026705 O.2        1 UNL1     -0.2702
     9 N         3.489563   10.591988   -1.664472 N.am        1 UNL1     -0.2772
     10 C         2.333357   9.97941   -1.238728 C.2        1 UNL1     0.1049
     11 C         2.270801   8.671321   -1.409638 C.2        1 UNL1     0.0801
     12 C         0.761372   9.839782   0.702072 C.ar        1 UNL1     0.0753
     13 C         0.892946   8.417809   0.605701 C.ar        1 UNL1     0.0305
     14 C         1.548608   7.785749   -0.536954 C.2        1 UNL1     0.0924
     15 N         3.064391   7.854498   -2.12346 N.pl3        1 UNL1     -0.3170
     16 C         2.464126   6.546854   -2.121838 C.3        1 UNL1     0.1275
     17 N         1.672279   6.496183   -0.838041 N.2        1 UNL1     -0.2557
     18 C         1.4401   6.517996   -3.252431 C.3        1 UNL1     0.0016
     19 C         2.139244   6.886222   -4.551352 C.3        1 UNL1     0.0026
     20 N         3.212383   5.931482   -4.791914 N.3        1 UNL1     -0.3018
     21 C         4.215293   5.842466   -3.728609 C.3        1 UNL1     0.0026
     22 C         3.491728   5.467044   -2.434234 C.3        1 UNL1     0.0016
     23 C         3.744381   6.008363   -6.137912 C.3        1 UNL1     0.0012
     24 C         2.720297   5.476787   -7.153015 C.3        1 UNL1     -0.0339
     25 C         1.956902   6.624025   -7.835017 C.3        1 UNL1     -0.0615
     26 C         3.409796   4.582575   -8.16877 C.3        1 UNL1     -0.0615
     27 C         0.030773   10.428906   1.731284 C.ar        1 UNL1     0.1347
     28 C         -0.643084   9.700945   2.695669 C.ar        1 UNL1     0.0342
     29 C         -0.458967   8.304594   2.609236 C.ar        1 UNL1     0.1435
     30 C         0.299789   7.702153   1.604958 C.ar        1 UNL1     0.0774
     31 O         -1.138044   7.453378   3.408794 O.3        1 UNL1     -0.4436
     32 C         -1.064824   6.187377   2.735926 C.3        1 UNL1     0.3143
     33 C         0.158648   6.28147   1.84684 C.2        1 UNL1     0.2504
     34 C         -1.645239   10.248345   3.673492 C.3        1 UNL1     -0.0327
     35 O         -0.783681   5.193003   3.728615 O.2        1 UNL1     -0.4528
     36 C         -2.391374   1.990086   2.477721 C.3        1 UNL1     0.0854
     37 C         -2.158873   1.22317   1.119301 C.3        1 UNL1     0.0236
     38 C         -1.743205   -0.317772   1.275709 C.3        1 UNL1     0.1131
     39 C         -0.549731   -0.715592   2.234682 C.3        1 UNL1     0.0200
     40 C         0.861929   0.173015   2.240104 C.3        1 UNL1     0.0661
     41 C         1.760606   0.618959   0.872213 C.3        1 UNL1     0.0091
     42 C         2.777964   2.111427   0.551395 C.3        1 UNL1     0.0661
     43 C         1.353939   10.663155   -0.381064 C.2        1 UNL1     0.2131
     44 O         0.996789   11.799249   -0.634975 O.2        1 UNL1     -0.2851
     45 O         -0.009857   11.82086   1.778719 O.3        1 UNL1     -0.5056
     46 O         0.869866   5.387132   1.446614 O.2        1 UNL1     -0.2836
     47 C         4.657995   3.059128   2.190041 C.3        1 UNL1     -0.0566
     48 O         3.935884   1.348612   0.025609 O.3        1 UNL1     -0.3909
     49 C         0.91871   0.385133   -0.362303 C.3        1 UNL1     -0.0577
     50 O         0.762511   1.266281   3.13039 O.3        1 UNL1     -0.3910
     51 O         -2.04022   1.288647   3.649091 O.3        1 UNL1     -0.3753
     52 C         -1.525196   2.148569   0.029787 C.3        1 UNL1     -0.0564
     53 O         -1.870361   -1.106062   0.004979 O.3        1 UNL1     -0.4608
     54 C         -1.24935   -2.299468   -0.255901 C.2        1 UNL1     0.3042
     55 O         -0.351351   -2.511893   -1.069727 O.2        1 UNL1     -0.2512
     56 C         -1.720644   -3.426431   0.618483 C.3        1 UNL1     0.0332
     57 C         -1.180727   -1.120845   3.647405 C.3        1 UNL1     -0.0567
     58 C         -2.324115   6.092976   1.843286 C.3        1 UNL1     0.0210
     59 C         -2.758356   1.678042   4.818927 C.3        1 UNL1     0.0372
     60 C         -1.739935   3.32541   2.565454 C.2        1 UNL1     -0.0208
     61 C         -1.039416   3.882188   3.554401 C.2        1 UNL1     0.0882
     62 H         2.8472   4.014815   1.56394 H        1 UNL1     0.0365
     63 H         3.465356   5.930668   1.220982 H        1 UNL1     0.0576
     64 H         5.987052   5.986202   -0.549537 H        1 UNL1     0.0615
     65 H         4.161728   8.233738   0.622909 H        1 UNL1     0.0622
     66 H         -3.473535   2.180341   2.505561 H        1 UNL1     0.0645
     67 H         -3.169838   1.13478   0.684909 H        1 UNL1     0.0362
     68 H         -2.650887   -0.704526   1.763621 H        1 UNL1     0.0741
     69 H         -0.205326   -1.706204   1.9692 H        1 UNL1     0.0359
     70 H         1.534665   -0.54089   2.752771 H        1 UNL1     0.0600
     71 H         2.466234   -0.233178   0.818294 H        1 UNL1     0.0348
     72 H         2.666378   2.049532   1.643656 H        1 UNL1     0.0602
     73 H         -2.012256   3.903254   1.717406 H        1 UNL1     0.0628
     74 H         -0.671628   3.343861   4.428572 H        1 UNL1     0.1022
     75 H         7.081585   8.879561   -2.165212 H        1 UNL1     0.0279
     76 H         6.009403   10.095677   -2.735114 H        1 UNL1     0.0279
     77 H         7.143548   10.39022   -1.355891 H        1 UNL1     0.0279
     78 H         3.791665   10.1195   -2.513922 H        1 UNL1     0.1553
     79 H         3.67724   8.170524   -2.852484 H        1 UNL1     0.1484
     80 H         0.995552   5.516897   -3.306695 H        1 UNL1     0.0317
     81 H         0.618958   7.215281   -3.054515 H        1 UNL1     0.0317
     82 H         2.523757   7.916541   -4.528855 H        1 UNL1     0.0428
     83 H         1.390624   6.86129   -5.343815 H        1 UNL1     0.0428
     84 H         4.964809   5.06287   -3.896741 H        1 UNL1     0.0428
     85 H         4.80496   6.765797   -3.644524 H        1 UNL1     0.0428
     86 H         4.265987   5.281152   -1.713154 H        1 UNL1     0.0317
     87 H         3.008267   4.488779   -2.545402 H        1 UNL1     0.0317
     88 H         3.946836   7.06314   -6.365405 H        1 UNL1     0.0429
     89 H         4.69877   5.472579   -6.22068 H        1 UNL1     0.0429
     90 H         1.997534   4.83718   -6.632699 H        1 UNL1     0.0308
     91 H         2.641815   7.316464   -8.33354 H        1 UNL1     0.0233
     92 H         1.245989   6.233562   -8.566967 H        1 UNL1     0.0233
     93 H         1.368809   7.215668   -7.123019 H        1 UNL1     0.0233
     94 H         2.729785   4.358328   -8.997706 H        1 UNL1     0.0233
     95 H         4.286406   5.090954   -8.57995 H        1 UNL1     0.0233
     96 H         3.728362   3.638465   -7.718059 H        1 UNL1     0.0233
     97 H         -2.071918   9.469609   4.298588 H        1 UNL1     0.0280
     98 H         -1.196218   10.974989   4.363148 H        1 UNL1     0.0280
     99 H         -2.465657   10.739522   3.125081 H        1 UNL1     0.0280
     100 H         -0.876368   12.186278   1.814101 H        1 UNL1     0.2922
     101 H         4.329358   2.053528   2.451621 H        1 UNL1     0.0236
     102 H         4.723892   3.707858   3.062847 H        1 UNL1     0.0236
     103 H         5.700722   2.934098   1.85347 H        1 UNL1     0.0236
     104 H         4.552877   1.19963   0.768639 H        1 UNL1     0.2098
     105 H         0.700482   1.283727   -0.933895 H        1 UNL1     0.0234
     106 H         1.28532   -0.401934   -1.021129 H        1 UNL1     0.0234
     107 H         0.0   -0.0   0.0 H        1 UNL1     0.0234
     108 H         0.080851   1.868671   2.775095 H        1 UNL1     0.2098
     109 H         -0.559074   2.564552   0.348027 H        1 UNL1     0.0234
     110 H         -1.40938   1.653979   -0.94063 H        1 UNL1     0.0234
     111 H         -2.164613   3.014545   -0.18742 H        1 UNL1     0.0234
     112 H         -1.172496   -4.341385   0.374067 H        1 UNL1     0.0342
     113 H         -1.631008   -3.188315   1.677307 H        1 UNL1     0.0342
     114 H         -2.783913   -3.603927   0.406068 H        1 UNL1     0.0342
     115 H         -1.893727   -1.951458   3.55305 H        1 UNL1     0.0234
     116 H         -0.441394   -1.406445   4.398316 H        1 UNL1     0.0234
     117 H         -1.823477   -0.336746   4.083299 H        1 UNL1     0.0234
     118 H         -3.207542   5.746904   2.407908 H        1 UNL1     0.0309
     119 H         -2.56643   7.034992   1.341199 H        1 UNL1     0.0309
     120 H         -2.222019   5.344176   1.050202 H        1 UNL1     0.0309
     121 H         -2.499261   2.714111   5.035233 H        1 UNL1     0.0524
     122 H         -3.850568   1.632307   4.673945 H        1 UNL1     0.0524
     123 H         -2.486826   1.041153   5.656028 H        1 UNL1     0.0524
@<TRIPOS>BOND
     1     1     2    1
     2     1    42    1
     3     2     3    2
     4     3     4    1
     5     4     5    2
     6     5     7    1
     7     6    75    1
     8     6    76    1
     9     6    77    1
    10     7     9   am
    11     9    10    1
    12    10    11    2
    13    10    43    1
    14    11    14    1
    15    11    15    1
    16    12    13   ar
    17    12    27   ar
    18    12    43    1
    19    13    14    1
    20    13    30   ar
    21    14    17    2
    22    15    16    1
    23    16    17    1
    24    16    18    1
    25    16    22    1
    26    18    19    1
    27    19    20    1
    28    20    21    1
    29    21    22    1
    30    23    24    1
    31    23    88    1
    32    23    89    1
    33    24    25    1
    34    24    26    1
    35    24    90    1
    36    25    91    1
    37    25    92    1
    38    25    93    1
    39    26    94    1
    40    26    95    1
    41    26    96    1
    42    27    28   ar
    43    28    29   ar
    44    29    30   ar
    45    29    31    1
    46    30    33    1
    47    31    32    1
    48    32    33    1
    49    32    35    1
    50    34    97    1
    51    34    98    1
    52    34    99    1
    53    35    61    1
    54    36    37    1
    55    36    60    1
    56    37    38    1
    57    38    39    1
    58    39    40    1
    59    40    41    1
    60    41    42    1
    61    45   100    1
    62    47   101    1
    63    47   102    1
    64    47   103    1
    65    48   104    1
    66    49   105    1
    67    49   106    1
    68    49   107    1
    69    50   108    1
    70    51    59    1
    71    52   109    1
    72    52   110    1
    73    52   111    1
    74    53    54    1
    75    54    55    2
    76    54    56    1
    77    56   112    1
    78    56   113    1
    79    56   114    1
    80    57   115    1
    81    57   116    1
    82    57   117    1
    83    58   118    1
    84    58   119    1
    85    58   120    1
    86    59   121    1
    87    59   122    1
    88    59   123    1
    89    60    61    2
    90     1    47    1
    91     1    62    1
    92     2    63    1
    93     3    64    1
    94     4    65    1
    95     5     6    1
    96     7     8    2
    97     9    78    1
    98    15    79    1
    99    18    80    1
   100    18    81    1
   101    19    82    1
   102    19    83    1
   103    20    23    1
   104    21    84    1
   105    21    85    1
   106    22    86    1
   107    22    87    1
   108    27    45    1
   109    28    34    1
   110    32    58    1
   111    33    46    2
   112    36    51    1
   113    36    66    1
   114    37    52    1
   115    37    67    1
   116    38    53    1
   117    38    68    1
   118    42    48    1
   119    42    72    1
   120    43    44    2
   121    60    73    1
   122    61    74    1
   123    39    69    1
   124    39    57    1
   125    40    70    1
   126    40    50    1
   127    41    71    1
   128    41    49    1
