@<TRIPOS>MOLECULE
*****
 123 128 0 0 0
SMALL
GASTEIGER

@<TRIPOS>ATOM
     1 C         5.013867   2.139982   0.535139 C.3        1 UNL1     0.0009
     2 C         6.432757   2.962853   -0.328964 C.2        1 UNL1     -0.0787
     3 C         7.749304   2.89425   -0.92733 C.2        1 UNL1     -0.0649
     4 C         8.577352   4.111931   -1.762763 C.2        1 UNL1     -0.0542
     5 C         9.619937   4.386701   -2.681783 C.2        1 UNL1     0.0115
     6 C         10.82863   3.76459   -3.433689 C.3        1 UNL1     -0.0348
     7 C         9.644588   5.808741   -3.426218 C.2        1 UNL1     0.2441
     8 O         10.391803   6.719528   -3.096579 O.2        1 UNL1     -0.2702
     9 N         8.940168   5.849333   -4.64207 N.am        1 UNL1     -0.2772
     10 C         7.620526   6.170936   -4.421984 C.2        1 UNL1     0.1049
     11 C         6.82889   5.173388   -4.072077 C.2        1 UNL1     0.0801
     12 C         6.149491   7.806773   -3.231427 C.ar        1 UNL1     0.0753
     13 C         5.447237   6.674817   -2.70786 C.ar        1 UNL1     0.0305
     14 C         5.683265   5.325566   -3.216647 C.2        1 UNL1     0.0924
     15 N         7.048417   3.847561   -4.094819 N.pl3        1 UNL1     -0.3170
     16 C         5.808006   3.191277   -3.777131 C.3        1 UNL1     0.1275
     17 N         5.0616   4.186987   -2.92322 N.2        1 UNL1     -0.2557
     18 C         5.015822   3.068833   -5.075265 C.3        1 UNL1     0.0016
     19 C         5.869282   2.336742   -6.098612 C.3        1 UNL1     0.0026
     20 N         6.212528   1.024422   -5.568493 N.3        1 UNL1     -0.3018
     21 C         6.923548   1.037527   -4.288397 C.3        1 UNL1     0.0026
     22 C         6.046244   1.773565   -3.274256 C.3        1 UNL1     0.0016
     23 C         6.764895   0.137358   -6.57281 C.3        1 UNL1     0.0012
     24 C         5.678211   -0.286455   -7.573438 C.3        1 UNL1     -0.0339
     25 C         5.901174   -1.724339   -8.07026 C.3        1 UNL1     -0.0615
     26 C         4.302961   -0.116823   -6.951592 C.3        1 UNL1     -0.0615
     27 C         5.833764   9.101957   -2.827775 C.ar        1 UNL1     0.1347
     28 C         4.813004   9.391796   -1.940029 C.ar        1 UNL1     0.0342
     29 C         4.167855   8.258708   -1.400531 C.ar        1 UNL1     0.1435
     30 C         4.497611   6.953596   -1.768176 C.ar        1 UNL1     0.0774
     31 O         3.081158   8.37769   -0.606843 O.3        1 UNL1     -0.4436
     32 C         2.452008   7.088327   -0.657699 C.3        1 UNL1     0.3143
     33 C         3.554695   6.124545   -1.046822 C.2        1 UNL1     0.2504
     34 C         4.254137   10.75792   -1.654592 C.3        1 UNL1     -0.0327
     35 O         2.057805   6.753693   0.678668 O.2        1 UNL1     -0.4528
     36 C         -1.024411   4.564762   0.337181 C.3        1 UNL1     0.0854
     37 C         -1.199903   3.206088   -0.444311 C.3        1 UNL1     0.0236
     38 C         -1.751848   1.985628   0.437493 C.3        1 UNL1     0.1131
     39 C         -1.056346   1.634023   1.814054 C.3        1 UNL1     0.0200
     40 C         0.606884   1.61268   1.939141 C.3        1 UNL1     0.0661
     41 C         1.671788   0.807311   0.892733 C.3        1 UNL1     0.0091
     42 C         3.376548   1.236384   0.368238 C.3        1 UNL1     0.0661
     43 C         7.164948   7.562416   -4.285655 C.2        1 UNL1     0.2131
     44 O         7.53799   8.414662   -5.071309 O.2        1 UNL1     -0.2851
     45 O         6.595833   10.144534   -3.350959 O.3        1 UNL1     -0.5056
     46 O         3.645356   4.943112   -0.798124 O.2        1 UNL1     -0.2836
     47 C         5.367604   1.878448   2.023914 C.3        1 UNL1     -0.0566
     48 O         3.914662   -0.124737   0.606774 O.3        1 UNL1     -0.3909
     49 C         0.916688   0.398851   -0.352449 C.3        1 UNL1     -0.0577
     50 O         1.103756   2.902247   2.23555 O.3        1 UNL1     -0.3910
     51 O         -1.203197   4.499528   1.734039 O.3        1 UNL1     -0.3753
     52 C         -0.092005   3.012403   -1.530588 C.3        1 UNL1     -0.0564
     53 O         -2.238425   0.825395   -0.380693 O.3        1 UNL1     -0.4608
     54 C         -2.368329   -0.463611   0.065981 C.2        1 UNL1     0.3042
     55 O         -3.301156   -1.237251   -0.146513 O.2        1 UNL1     -0.2512
     56 C         -1.183785   -0.950194   0.851352 C.3        1 UNL1     0.0332
     57 C         -1.881513   2.366155   2.97218 C.3        1 UNL1     -0.0567
     58 C         1.416937   7.151632   -1.804935 C.3        1 UNL1     0.0210
     59 C         -2.406635   5.098112   2.212892 C.3        1 UNL1     0.0372
     60 C         0.268837   5.26291   0.102106 C.2        1 UNL1     -0.0208
     61 C         1.106845   5.843074   0.962278 C.2        1 UNL1     0.0882
     62 H         4.469015   3.091277   0.505395 H        1 UNL1     0.0365
     63 H         6.091278   4.000044   -0.338782 H        1 UNL1     0.0576
     64 H         8.281315   1.946151   -1.033069 H        1 UNL1     0.0615
     65 H         8.013345   5.018761   -1.528165 H        1 UNL1     0.0622
     66 H         -1.801648   5.223098   -0.075788 H        1 UNL1     0.0645
     67 H         -2.053466   3.393123   -1.118854 H        1 UNL1     0.0362
     68 H         -2.742241   2.384782   0.704553 H        1 UNL1     0.0741
     69 H         -1.328118   0.624845   2.093533 H        1 UNL1     0.0359
     70 H         0.719768   1.048669   2.884767 H        1 UNL1     0.0600
     71 H         1.7632   -0.162967   1.419195 H        1 UNL1     0.0348
     72 H         3.190325   1.806467   1.289998 H        1 UNL1     0.0602
     73 H         0.423615   5.368878   -0.942912 H        1 UNL1     0.0628
     74 H         1.051348   5.734149   2.045926 H        1 UNL1     0.1022
     75 H         11.466843   3.17639   -2.731024 H        1 UNL1     0.0279
     76 H         10.596122   3.034654   -4.205831 H        1 UNL1     0.0279
     77 H         11.541623   4.521375   -3.792322 H        1 UNL1     0.0279
     78 H         8.962617   4.93132   -5.08119 H        1 UNL1     0.1553
     79 H         7.770351   3.411792   -4.638741 H        1 UNL1     0.1484
     80 H         4.081483   2.530796   -4.874532 H        1 UNL1     0.0317
     81 H         4.733359   4.056242   -5.455909 H        1 UNL1     0.0317
     82 H         6.773016   2.907553   -6.358136 H        1 UNL1     0.0428
     83 H         5.286097   2.262009   -7.016958 H        1 UNL1     0.0428
     84 H         7.098646   0.039955   -3.873667 H        1 UNL1     0.0428
     85 H         7.930334   1.467044   -4.384385 H        1 UNL1     0.0428
     86 H         6.533435   1.648211   -2.325088 H        1 UNL1     0.0317
     87 H         5.096278   1.240877   -3.14424 H        1 UNL1     0.0317
     88 H         7.547418   0.682426   -7.116734 H        1 UNL1     0.0429
     89 H         7.242599   -0.737345   -6.112955 H        1 UNL1     0.0429
     90 H         5.70189   0.388934   -8.436862 H        1 UNL1     0.0308
     91 H         5.090235   -2.047478   -8.729852 H        1 UNL1     0.0233
     92 H         6.85124   -1.805842   -8.603496 H        1 UNL1     0.0233
     93 H         5.949336   -2.447773   -7.247363 H        1 UNL1     0.0233
     94 H         3.639448   -0.925818   -7.275806 H        1 UNL1     0.0233
     95 H         4.378089   -0.158904   -5.861387 H        1 UNL1     0.0233
     96 H         3.850521   0.836808   -7.237694 H        1 UNL1     0.0233
     97 H         3.190818   10.815752   -1.867283 H        1 UNL1     0.0280
     98 H         4.36514   11.038167   -0.598942 H        1 UNL1     0.0280
     99 H         4.772186   11.50597   -2.276799 H        1 UNL1     0.0280
     100 H         7.526346   10.01467   -3.297073 H        1 UNL1     0.2922
     101 H         4.856038   2.603771   2.656261 H        1 UNL1     0.0236
     102 H         6.44049   1.856568   2.212119 H        1 UNL1     0.0236
     103 H         5.001452   0.897609   2.370442 H        1 UNL1     0.0236
     104 H         3.491038   -0.471722   1.416165 H        1 UNL1     0.2098
     105 H         0.685092   1.219542   -1.02672 H        1 UNL1     0.0234
     106 H         1.361977   -0.429052   -0.90401 H        1 UNL1     0.0234
     107 H         0.0   -0.0   0.0 H        1 UNL1     0.0234
     108 H         1.107321   2.99538   3.207704 H        1 UNL1     0.2098
     109 H         0.919062   3.023103   -1.100077 H        1 UNL1     0.0234
     110 H         -0.227192   2.102924   -2.125832 H        1 UNL1     0.0234
     111 H         -0.107456   3.821297   -2.27315 H        1 UNL1     0.0234
     112 H         -1.329135   -0.736741   1.914676 H        1 UNL1     0.0342
     113 H         -0.991419   -2.009549   0.68824 H        1 UNL1     0.0342
     114 H         -0.297383   -0.395202   0.514543 H        1 UNL1     0.0342
     115 H         -1.884153   1.782688   3.903173 H        1 UNL1     0.0234
     116 H         -1.516654   3.366683   3.212744 H        1 UNL1     0.0234
     117 H         -2.962716   2.439025   2.763297 H        1 UNL1     0.0234
     118 H         0.379162   7.132317   -1.428561 H        1 UNL1     0.0309
     119 H         1.546696   8.024208   -2.45299 H        1 UNL1     0.0309
     120 H         1.463629   6.276302   -2.461992 H        1 UNL1     0.0309
     121 H         -2.88936   4.381962   2.877318 H        1 UNL1     0.0524
     122 H         -2.215006   6.014569   2.795491 H        1 UNL1     0.0524
     123 H         -3.062937   5.33956   1.381589 H        1 UNL1     0.0524
@<TRIPOS>BOND
     1     1     2    1
     2     1    42    1
     3     2     3    2
     4     3     4    1
     5     4     5    2
     6     5     7    1
     7     6    75    1
     8     6    76    1
     9     6    77    1
    10     7     9   am
    11     9    10    1
    12    10    11    2
    13    10    43    1
    14    11    14    1
    15    11    15    1
    16    12    13   ar
    17    12    27   ar
    18    12    43    1
    19    13    14    1
    20    13    30   ar
    21    14    17    2
    22    15    16    1
    23    16    17    1
    24    16    18    1
    25    16    22    1
    26    18    19    1
    27    19    20    1
    28    20    21    1
    29    21    22    1
    30    23    24    1
    31    23    88    1
    32    23    89    1
    33    24    25    1
    34    24    26    1
    35    24    90    1
    36    25    91    1
    37    25    92    1
    38    25    93    1
    39    26    94    1
    40    26    95    1
    41    26    96    1
    42    27    28   ar
    43    28    29   ar
    44    29    30   ar
    45    29    31    1
    46    30    33    1
    47    31    32    1
    48    32    33    1
    49    32    35    1
    50    34    97    1
    51    34    98    1
    52    34    99    1
    53    35    61    1
    54    36    37    1
    55    36    60    1
    56    37    38    1
    57    38    39    1
    58    39    40    1
    59    40    41    1
    60    41    42    1
    61    45   100    1
    62    47   101    1
    63    47   102    1
    64    47   103    1
    65    48   104    1
    66    49   105    1
    67    49   106    1
    68    49   107    1
    69    50   108    1
    70    51    59    1
    71    52   109    1
    72    52   110    1
    73    52   111    1
    74    53    54    1
    75    54    55    2
    76    54    56    1
    77    56   112    1
    78    56   113    1
    79    56   114    1
    80    57   115    1
    81    57   116    1
    82    57   117    1
    83    58   118    1
    84    58   119    1
    85    58   120    1
    86    59   121    1
    87    59   122    1
    88    59   123    1
    89    60    61    2
    90     1    47    1
    91     1    62    1
    92     2    63    1
    93     3    64    1
    94     4    65    1
    95     5     6    1
    96     7     8    2
    97     9    78    1
    98    15    79    1
    99    18    80    1
   100    18    81    1
   101    19    82    1
   102    19    83    1
   103    20    23    1
   104    21    84    1
   105    21    85    1
   106    22    86    1
   107    22    87    1
   108    27    45    1
   109    28    34    1
   110    32    58    1
   111    33    46    2
   112    36    51    1
   113    36    66    1
   114    37    52    1
   115    37    67    1
   116    38    53    1
   117    38    68    1
   118    42    48    1
   119    42    72    1
   120    43    44    2
   121    60    73    1
   122    61    74    1
   123    39    69    1
   124    39    57    1
   125    40    70    1
   126    40    50    1
   127    41    71    1
   128    41    49    1
