@<TRIPOS>MOLECULE
*****
 123 128 0 0 0
SMALL
GASTEIGER

@<TRIPOS>ATOM
     1 C         -2.253017   -3.351565   0.843948 C.3        1 UNL1     0.0009
     2 C         -2.070317   -4.507696   2.281662 C.2        1 UNL1     -0.0787
     3 C         -1.548593   -5.732864   2.849829 C.2        1 UNL1     -0.0649
     4 C         -1.635238   -6.253379   4.458528 C.2        1 UNL1     -0.0542
     5 C         -1.07403   -7.117138   5.431176 C.2        1 UNL1     0.0115
     6 C         -0.091125   -8.301407   5.642666 C.3        1 UNL1     -0.0348
     7 C         -1.363137   -6.830574   6.984008 C.2        1 UNL1     0.2441
     8 O         -2.179172   -7.466082   7.637262 O.2        1 UNL1     -0.2702
     9 N         -0.434545   -5.979982   7.608798 N.am        1 UNL1     -0.2772
     10 C         -0.814072   -4.665373   7.463591 C.2        1 UNL1     0.1049
     11 C         -0.480254   -4.085568   6.324901 C.2        1 UNL1     0.0801
     12 C         -2.768469   -3.125175   7.719429 C.ar        1 UNL1     0.0753
     13 C         -2.488145   -2.675429   6.38986 C.ar        1 UNL1     0.0305
     14 C         -1.254927   -3.047762   5.700228 C.2        1 UNL1     0.0924
     15 N         0.355512   -4.499699   5.357162 N.pl3        1 UNL1     -0.3170
     16 C         0.501802   -3.423973   4.412881 C.3        1 UNL1     0.1275
     17 N         -0.788717   -2.648881   4.520198 N.2        1 UNL1     -0.2557
     18 C         1.595087   -2.501756   4.943866 C.3        1 UNL1     0.0016
     19 C         2.857401   -3.320201   5.163641 C.3        1 UNL1     0.0026
     20 N         3.250037   -3.923542   3.897606 N.3        1 UNL1     -0.3018
     21 C         2.237802   -4.780562   3.276909 C.3        1 UNL1     0.0026
     22 C         0.980164   -3.93698   3.061015 C.3        1 UNL1     0.0016
     23 C         4.590956   -4.472855   3.926526 C.3        1 UNL1     0.0012
     24 C         5.348565   -3.979183   5.169133 C.3        1 UNL1     -0.0339
     25 C         6.767086   -4.568798   5.234021 C.3        1 UNL1     -0.0615
     26 C         5.372591   -2.46079   5.195322 C.3        1 UNL1     -0.0615
     27 C         -3.886048   -2.66964   8.414859 C.ar        1 UNL1     0.1347
     28 C         -4.770196   -1.737363   7.901835 C.ar        1 UNL1     0.0342
     29 C         -4.501377   -1.345781   6.57309 C.ar        1 UNL1     0.1435
     30 C         -3.405965   -1.821137   5.851059 C.ar        1 UNL1     0.0774
     31 O         -5.206603   -0.362974   5.971631 O.3        1 UNL1     -0.4436
     32 C         -4.376339   0.063882   4.881067 C.3        1 UNL1     0.3143
     33 C         -3.469482   -1.114425   4.588803 C.2        1 UNL1     0.2504
     34 C         -5.839816   -1.017736   8.675236 C.3        1 UNL1     -0.0327
     35 O         -5.225516   0.230143   3.738917 O.2        1 UNL1     -0.4528
     36 C         -3.627298   2.961354   1.642666 C.3        1 UNL1     0.0854
     37 C         -2.175945   3.025486   1.028674 C.3        1 UNL1     0.0236
     38 C         -2.122432   3.26907   -0.555481 C.3        1 UNL1     0.1131
     39 C         -2.986156   2.359527   -1.519319 C.3        1 UNL1     0.0200
     40 C         -3.061382   0.710139   -1.282049 C.3        1 UNL1     0.0661
     41 C         -1.734477   -0.323798   -1.063175 C.3        1 UNL1     0.0091
     42 C         -1.575068   -1.863084   -0.07799 C.3        1 UNL1     0.0661
     43 C         -1.781202   -4.024252   8.366904 C.2        1 UNL1     0.2131
     44 O         -1.684798   -4.160701   9.573066 O.2        1 UNL1     -0.2851
     45 O         -4.111264   -3.191671   9.686944 O.3        1 UNL1     -0.5056
     46 O         -2.937283   -1.414626   3.543577 O.2        1 UNL1     -0.2836
     47 C         -3.262709   -3.926604   -0.185534 C.3        1 UNL1     -0.0566
     48 O         -0.921464   -2.627948   -1.16744 O.3        1 UNL1     -0.3909
     49 C         -0.506542   0.511825   -0.777863 C.3        1 UNL1     -0.0577
     50 O         -4.08604   0.381887   -0.365507 O.3        1 UNL1     -0.3910
     51 O         -4.688722   2.949815   0.71494 O.3        1 UNL1     -0.3753
     52 C         -1.194069   2.04757   1.752931 C.3        1 UNL1     -0.0564
     53 O         -0.766283   3.672982   -1.055523 O.3        1 UNL1     -0.4608
     54 C         -0.521365   4.396383   -2.193343 C.2        1 UNL1     0.3042
     55 O         -1.132049   4.340251   -3.259998 O.2        1 UNL1     -0.2512
     56 C         0.593389   5.392318   -2.044508 C.3        1 UNL1     0.0332
     57 C         -4.354507   3.133181   -1.814697 C.3        1 UNL1     -0.0567
     58 C         -3.517817   1.233348   5.416622 C.3        1 UNL1     0.0210
     59 C         -5.976548   3.203589   1.274376 C.3        1 UNL1     0.0372
     60 C         -3.864132   1.829751   2.579973 C.2        1 UNL1     -0.0208
     61 C         -4.893976   0.987745   2.675853 C.2        1 UNL1     0.0882
     62 H         -2.818768   -2.668919   1.489418 H        1 UNL1     0.0365
     63 H         -2.703421   -4.013844   3.021769 H        1 UNL1     0.0576
     64 H         -0.87815   -6.385283   2.285947 H        1 UNL1     0.0615
     65 H         -2.381983   -5.592193   4.90651 H        1 UNL1     0.0622
     66 H         -3.712131   3.875707   2.24666 H        1 UNL1     0.0645
     67 H         -1.764919   3.976025   1.410893 H        1 UNL1     0.0362
     68 H         -2.58471   4.266806   -0.603892 H        1 UNL1     0.0741
     69 H         -2.586507   2.436908   -2.521667 H        1 UNL1     0.0359
     70 H         -3.458353   0.393907   -2.265651 H        1 UNL1     0.0600
     71 H         -1.551147   -0.62776   -2.112439 H        1 UNL1     0.0348
     72 H         -2.653493   -1.710468   -0.229722 H        1 UNL1     0.0602
     73 H         -3.105134   1.826477   3.322374 H        1 UNL1     0.0628
     74 H         -5.680979   0.888362   1.927531 H        1 UNL1     0.1022
     75 H         0.420973   -8.561635   4.685028 H        1 UNL1     0.0279
     76 H         0.745335   -8.123524   6.314797 H        1 UNL1     0.0279
     77 H         -0.605954   -9.244786   5.876521 H        1 UNL1     0.0279
     78 H         0.476903   -6.086139   7.168265 H        1 UNL1     0.1553
     79 H         1.056821   -5.204811   5.491011 H        1 UNL1     0.1484
     80 H         1.76257   -1.693235   4.222056 H        1 UNL1     0.0317
     81 H         1.285155   -2.02638   5.880675 H        1 UNL1     0.0317
     82 H         2.715865   -4.086291   5.940162 H        1 UNL1     0.0428
     83 H         3.62337   -2.643667   5.543962 H        1 UNL1     0.0428
     84 H         2.526482   -5.156562   2.290451 H        1 UNL1     0.0428
     85 H         2.055071   -5.689878   3.866036 H        1 UNL1     0.0428
     86 H         0.312548   -4.553782   2.488448 H        1 UNL1     0.0317
     87 H         1.199972   -3.103373   2.38287 H        1 UNL1     0.0317
     88 H         4.510948   -5.566603   3.977605 H        1 UNL1     0.0429
     89 H         5.139996   -4.23315   3.006814 H        1 UNL1     0.0429
     90 H         4.801555   -4.285645   6.068619 H        1 UNL1     0.0308
     91 H         7.36876   -4.252793   4.376565 H        1 UNL1     0.0233
     92 H         7.269468   -4.26605   6.155739 H        1 UNL1     0.0233
     93 H         6.763912   -5.665532   5.233532 H        1 UNL1     0.0233
     94 H         4.639818   -2.083839   5.916979 H        1 UNL1     0.0233
     95 H         6.360957   -2.107997   5.502943 H        1 UNL1     0.0233
     96 H         5.137855   -2.040981   4.213167 H        1 UNL1     0.0233
     97 H         -6.831376   -1.213559   8.278129 H        1 UNL1     0.0280
     98 H         -5.870482   -1.329582   9.727409 H        1 UNL1     0.0280
     99 H         -5.658689   0.068742   8.632162 H        1 UNL1     0.0280
     100 H         -4.442092   -2.570807   10.312006 H        1 UNL1     0.2922
     101 H         -2.981935   -3.612707   -1.190666 H        1 UNL1     0.0236
     102 H         -4.298299   -3.679551   0.045773 H        1 UNL1     0.0236
     103 H         -3.237491   -5.028613   -0.219209 H        1 UNL1     0.0236
     104 H         -0.630284   -1.986402   -1.844642 H        1 UNL1     0.2098
     105 H         0.178709   0.604149   -1.616742 H        1 UNL1     0.0234
     106 H         -0.712592   1.492285   -0.348714 H        1 UNL1     0.0234
     107 H         0.0   0.0   0.0 H        1 UNL1     0.0234
     108 H         -3.731812   -0.3046   0.23201 H        1 UNL1     0.2098
     109 H         -0.370046   2.578079   2.250181 H        1 UNL1     0.0234
     110 H         -1.694012   1.39047   2.472667 H        1 UNL1     0.0234
     111 H         -0.718031   1.35493   1.046118 H        1 UNL1     0.0234
     112 H         0.749439   5.620788   -0.985832 H        1 UNL1     0.0342
     113 H         1.515541   5.047426   -2.509834 H        1 UNL1     0.0342
     114 H         0.293231   6.321165   -2.548803 H        1 UNL1     0.0342
     115 H         -4.386375   3.530179   -2.838692 H        1 UNL1     0.0234
     116 H         -5.248982   2.52388   -1.670762 H        1 UNL1     0.0234
     117 H         -4.47352   4.057709   -1.223913 H        1 UNL1     0.0234
     118 H         -2.807696   1.607471   4.658488 H        1 UNL1     0.0309
     119 H         -4.116669   2.070035   5.790161 H        1 UNL1     0.0309
     120 H         -2.867377   0.9323   6.245118 H        1 UNL1     0.0309
     121 H         -6.655051   2.437017   0.90107 H        1 UNL1     0.0524
     122 H         -5.974837   3.137897   2.375157 H        1 UNL1     0.0524
     123 H         -6.326402   4.18916   0.980528 H        1 UNL1     0.0524
@<TRIPOS>BOND
     1     1     2    1
     2     1    42    1
     3     2     3    2
     4     3     4    1
     5     4     5    2
     6     5     7    1
     7     6    75    1
     8     6    76    1
     9     6    77    1
    10     7     9   am
    11     9    10    1
    12    10    11    2
    13    10    43    1
    14    11    14    1
    15    11    15    1
    16    12    13   ar
    17    12    27   ar
    18    12    43    1
    19    13    14    1
    20    13    30   ar
    21    14    17    2
    22    15    16    1
    23    16    17    1
    24    16    18    1
    25    16    22    1
    26    18    19    1
    27    19    20    1
    28    20    21    1
    29    21    22    1
    30    23    24    1
    31    23    88    1
    32    23    89    1
    33    24    25    1
    34    24    26    1
    35    24    90    1
    36    25    91    1
    37    25    92    1
    38    25    93    1
    39    26    94    1
    40    26    95    1
    41    26    96    1
    42    27    28   ar
    43    28    29   ar
    44    29    30   ar
    45    29    31    1
    46    30    33    1
    47    31    32    1
    48    32    33    1
    49    32    35    1
    50    34    97    1
    51    34    98    1
    52    34    99    1
    53    35    61    1
    54    36    37    1
    55    36    60    1
    56    37    38    1
    57    38    39    1
    58    39    40    1
    59    40    41    1
    60    41    42    1
    61    45   100    1
    62    47   101    1
    63    47   102    1
    64    47   103    1
    65    48   104    1
    66    49   105    1
    67    49   106    1
    68    49   107    1
    69    50   108    1
    70    51    59    1
    71    52   109    1
    72    52   110    1
    73    52   111    1
    74    53    54    1
    75    54    55    2
    76    54    56    1
    77    56   112    1
    78    56   113    1
    79    56   114    1
    80    57   115    1
    81    57   116    1
    82    57   117    1
    83    58   118    1
    84    58   119    1
    85    58   120    1
    86    59   121    1
    87    59   122    1
    88    59   123    1
    89    60    61    2
    90     1    47    1
    91     1    62    1
    92     2    63    1
    93     3    64    1
    94     4    65    1
    95     5     6    1
    96     7     8    2
    97     9    78    1
    98    15    79    1
    99    18    80    1
   100    18    81    1
   101    19    82    1
   102    19    83    1
   103    20    23    1
   104    21    84    1
   105    21    85    1
   106    22    86    1
   107    22    87    1
   108    27    45    1
   109    28    34    1
   110    32    58    1
   111    33    46    2
   112    36    51    1
   113    36    66    1
   114    37    52    1
   115    37    67    1
   116    38    53    1
   117    38    68    1
   118    42    48    1
   119    42    72    1
   120    43    44    2
   121    60    73    1
   122    61    74    1
   123    39    69    1
   124    39    57    1
   125    40    70    1
   126    40    50    1
   127    41    71    1
   128    41    49    1
