@<TRIPOS>MOLECULE
*****
 123 128 0 0 0
SMALL
GASTEIGER

@<TRIPOS>ATOM
     1 C         -3.062676   3.565487   2.354351 C.3        1 UNL1     0.0009
     2 C         -4.84682   4.055196   2.472892 C.2        1 UNL1     -0.0787
     3 C         -5.906484   5.009855   2.224328 C.2        1 UNL1     -0.0649
     4 C         -7.566311   4.8163   2.496115 C.2        1 UNL1     -0.0542
     5 C         -8.860111   5.287469   2.16271 C.2        1 UNL1     0.0115
     6 C         -9.636342   6.419168   1.434667 C.3        1 UNL1     -0.0348
     7 C         -10.130414   4.357755   2.477275 C.2        1 UNL1     0.2441
     8 O         -10.870543   4.543571   3.433417 O.2        1 UNL1     -0.2702
     9 N         -10.488012   3.478546   1.440324 N.am        1 UNL1     -0.2772
     10 C         -9.797772   2.293828   1.555798 C.2        1 UNL1     0.1049
     11 C         -8.57525   2.281405   1.056291 C.2        1 UNL1     0.0801
     12 C         -9.187816   0.50514   3.194664 C.ar        1 UNL1     0.0753
     13 C         -7.834705   0.679074   2.761713 C.ar        1 UNL1     0.0305
     14 C         -7.504785   1.480307   1.585181 C.2        1 UNL1     0.0924
     15 N         -7.957531   3.172546   0.26205 N.pl3        1 UNL1     -0.3170
     16 C         -6.696563   2.605802   -0.136716 C.3        1 UNL1     0.1275
     17 N         -6.331363   1.667845   0.987823 N.2        1 UNL1     -0.2557
     18 C         -6.961481   1.724814   -1.353836 C.3        1 UNL1     0.0016
     19 C         -7.638603   2.565447   -2.424552 C.3        1 UNL1     0.0026
     20 N         -6.766067   3.680723   -2.764946 N.3        1 UNL1     -0.3018
     21 C         -6.404162   4.551414   -1.644549 C.3        1 UNL1     0.0026
     22 C         -5.721423   3.687245   -0.582959 C.3        1 UNL1     0.0016
     23 C         -7.174451   4.367582   -3.974115 C.3        1 UNL1     0.0012
     24 C         -8.653092   4.083425   -4.28174 C.3        1 UNL1     -0.0339
     25 C         -9.178578   4.992427   -5.404966 C.3        1 UNL1     -0.0615
     26 C         -8.842252   2.614218   -4.617045 C.3        1 UNL1     -0.0615
     27 C         -9.505331   -0.355988   4.242405 C.ar        1 UNL1     0.1347
     28 C         -8.563946   -1.123572   4.904718 C.ar        1 UNL1     0.0342
     29 C         -7.232695   -0.899243   4.494094 C.ar        1 UNL1     0.1435
     30 C         -6.895785   -0.012841   3.470374 C.ar        1 UNL1     0.0774
     31 O         -6.213506   -1.649591   4.966575 O.3        1 UNL1     -0.4436
     32 C         -5.156791   -1.468325   4.011919 C.3        1 UNL1     0.3143
     33 C         -5.461159   -0.149973   3.329627 C.2        1 UNL1     0.2504
     34 C         -8.856275   -2.247187   5.859775 C.3        1 UNL1     -0.0327
     35 O         -3.942447   -1.285374   4.750261 O.2        1 UNL1     -0.4528
     36 C         -1.170526   -2.6603   2.551598 C.3        1 UNL1     0.0854
     37 C         -0.767883   -2.250349   1.082809 C.3        1 UNL1     0.0236
     38 C         0.766307   -1.821902   0.897231 C.3        1 UNL1     0.1131
     39 C         1.402447   -0.742698   1.863105 C.3        1 UNL1     0.0200
     40 C         0.555606   0.637989   2.261854 C.3        1 UNL1     0.0661
     41 C         -0.212405   1.683164   1.168521 C.3        1 UNL1     0.0091
     42 C         -1.729016   2.697846   1.3575 C.3        1 UNL1     0.0661
     43 C         -10.252082   1.204058   2.432359 C.2        1 UNL1     0.2131
     44 O         -11.418471   0.854389   2.429923 O.2        1 UNL1     -0.2851
     45 O         -10.84093   -0.433143   4.631839 O.3        1 UNL1     -0.5056
     46 O         -4.690259   0.623743   2.807201 O.2        1 UNL1     -0.2836
     47 C         -2.218478   4.347354   3.396462 C.3        1 UNL1     -0.0566
     48 O         -1.113238   3.926992   0.801502 O.3        1 UNL1     -0.3909
     49 C         -0.303551   0.999944   -0.177732 C.3        1 UNL1     -0.0577
     50 O         -0.279482   0.408656   3.378886 O.3        1 UNL1     -0.3910
     51 O         -0.194183   -2.435723   3.54344 O.3        1 UNL1     -0.3753
     52 C         -1.932154   -1.512149   0.344919 C.3        1 UNL1     -0.0564
     53 O         1.208673   -1.77893   -0.536224 O.3        1 UNL1     -0.4608
     54 C         2.376485   -1.225131   -0.991693 C.2        1 UNL1     0.3042
     55 O         2.929753   -0.205833   -0.580884 O.2        1 UNL1     -0.2512
     56 C         3.038573   -2.025626   -2.076848 C.3        1 UNL1     0.0332
     57 C         2.14459   -1.528429   3.042099 C.3        1 UNL1     -0.0567
     58 C         -5.300414   -2.609748   2.978451 C.3        1 UNL1     0.0210
     59 C         1.051679   -3.093639   3.317963 C.3        1 UNL1     0.0372
     60 C         -2.435388   -2.054036   3.049321 C.2        1 UNL1     -0.0208
     61 C         -2.719736   -1.489093   4.223514 C.2        1 UNL1     0.0882
     62 H         -3.316018   2.603204   2.815373 H        1 UNL1     0.0365
     63 H         -5.251307   3.214793   3.040855 H        1 UNL1     0.0576
     64 H         -5.729106   5.927753   1.659431 H        1 UNL1     0.0615
     65 H         -7.624851   3.925773   3.127794 H        1 UNL1     0.0622
     66 H         -1.356726   -3.742046   2.495019 H        1 UNL1     0.0645
     67 H         -0.800024   -3.200064   0.521053 H        1 UNL1     0.0362
     68 H         1.255698   -2.772402   1.159087 H        1 UNL1     0.0741
     69 H         2.297332   -0.346998   1.401575 H        1 UNL1     0.0359
     70 H         1.381087   1.260602   2.656816 H        1 UNL1     0.0600
     71 H         0.604678   2.40909   0.98862 H        1 UNL1     0.0348
     72 H         -1.395414   2.458216   2.377599 H        1 UNL1     0.0602
     73 H         -3.210157   -2.236152   2.3466 H        1 UNL1     0.0628
     74 H         -1.975845   -1.216216   4.972782 H        1 UNL1     0.1022
     75 H         -8.944285   7.247147   1.147368 H        1 UNL1     0.0279
     76 H         -10.096525   6.158102   0.484326 H        1 UNL1     0.0279
     77 H         -10.340826   6.944969   2.095679 H        1 UNL1     0.0279
     78 H         -10.241771   3.890295   0.542601 H        1 UNL1     0.1553
     79 H         -8.441563   3.860729   -0.284805 H        1 UNL1     0.1484
     80 H         -6.009946   1.312438   -1.710619 H        1 UNL1     0.0317
     81 H         -7.593454   0.870524   -1.088412 H        1 UNL1     0.0317
     82 H         -8.626908   2.921367   -2.098226 H        1 UNL1     0.0428
     83 H         -7.819996   1.91742   -3.282577 H        1 UNL1     0.0428
     84 H         -5.685637   5.332899   -1.91066 H        1 UNL1     0.0428
     85 H         -7.271716   5.106022   -1.261043 H        1 UNL1     0.0428
     86 H         -5.35372   4.373954   0.156779 H        1 UNL1     0.0317
     87 H         -4.806622   3.242516   -0.993387 H        1 UNL1     0.0317
     88 H         -7.052308   5.446495   -3.811874 H        1 UNL1     0.0429
     89 H         -6.533999   4.095464   -4.822966 H        1 UNL1     0.0429
     90 H         -9.248851   4.26376   -3.379098 H        1 UNL1     0.0308
     91 H         -9.93394   4.481488   -6.009509 H        1 UNL1     0.0233
     92 H         -9.608907   5.90767   -4.991741 H        1 UNL1     0.0233
     93 H         -8.384101   5.310616   -6.090822 H        1 UNL1     0.0233
     94 H         -7.908915   2.192163   -5.005101 H        1 UNL1     0.0233
     95 H         -9.115081   2.057495   -3.716164 H        1 UNL1     0.0233
     96 H         -9.62387   2.473935   -5.36895 H        1 UNL1     0.0233
     97 H         -8.715755   -3.220466   5.399109 H        1 UNL1     0.0280
     98 H         -8.192924   -2.230065   6.734377 H        1 UNL1     0.0280
     99 H         -9.900707   -2.175814   6.204975 H        1 UNL1     0.0280
     100 H         -11.371954   0.292924   4.355319 H        1 UNL1     0.2922
     101 H         -1.233066   3.891069   3.488234 H        1 UNL1     0.0236
     102 H         -2.714246   4.447582   4.361424 H        1 UNL1     0.0236
     103 H         -2.018466   5.382947   3.074381 H        1 UNL1     0.0236
     104 H         -0.307448   3.660133   0.317292 H        1 UNL1     0.2098
     105 H         -1.304481   0.97354   -0.601114 H        1 UNL1     0.0234
     106 H         0.410914   1.35745   -0.91912 H        1 UNL1     0.0234
     107 H         0.0   0.0   0.0 H        1 UNL1     0.0234
     108 H         0.275512   0.016687   4.080392 H        1 UNL1     0.2098
     109 H         -1.698527   -1.318332   -0.711285 H        1 UNL1     0.0234
     110 H         -2.890004   -2.038425   0.41772 H        1 UNL1     0.0234
     111 H         -2.134234   -0.528755   0.789942 H        1 UNL1     0.0234
     112 H         3.955107   -1.524413   -2.402571 H        1 UNL1     0.0342
     113 H         3.24257   -3.048727   -1.764611 H        1 UNL1     0.0342
     114 H         2.355292   -2.069807   -2.936115 H        1 UNL1     0.0342
     115 H         3.237598   -1.47462   2.943983 H        1 UNL1     0.0234
     116 H         1.886888   -1.174653   4.04234 H        1 UNL1     0.0234
     117 H         1.981604   -2.619577   3.014297 H        1 UNL1     0.0234
     118 H         -5.543835   -2.228812   1.971157 H        1 UNL1     0.0309
     119 H         -4.412363   -3.246624   2.915556 H        1 UNL1     0.0309
     120 H         -6.137916   -3.278715   3.204681 H        1 UNL1     0.0309
     121 H         1.842024   -2.353176   3.438071 H        1 UNL1     0.0524
     122 H         1.237617   -3.899024   4.047908 H        1 UNL1     0.0524
     123 H         1.079594   -3.512514   2.316036 H        1 UNL1     0.0524
@<TRIPOS>BOND
     1     1     2    1
     2     1    42    1
     3     2     3    2
     4     3     4    1
     5     4     5    2
     6     5     7    1
     7     6    75    1
     8     6    76    1
     9     6    77    1
    10     7     9   am
    11     9    10    1
    12    10    11    2
    13    10    43    1
    14    11    14    1
    15    11    15    1
    16    12    13   ar
    17    12    27   ar
    18    12    43    1
    19    13    14    1
    20    13    30   ar
    21    14    17    2
    22    15    16    1
    23    16    17    1
    24    16    18    1
    25    16    22    1
    26    18    19    1
    27    19    20    1
    28    20    21    1
    29    21    22    1
    30    23    24    1
    31    23    88    1
    32    23    89    1
    33    24    25    1
    34    24    26    1
    35    24    90    1
    36    25    91    1
    37    25    92    1
    38    25    93    1
    39    26    94    1
    40    26    95    1
    41    26    96    1
    42    27    28   ar
    43    28    29   ar
    44    29    30   ar
    45    29    31    1
    46    30    33    1
    47    31    32    1
    48    32    33    1
    49    32    35    1
    50    34    97    1
    51    34    98    1
    52    34    99    1
    53    35    61    1
    54    36    37    1
    55    36    60    1
    56    37    38    1
    57    38    39    1
    58    39    40    1
    59    40    41    1
    60    41    42    1
    61    45   100    1
    62    47   101    1
    63    47   102    1
    64    47   103    1
    65    48   104    1
    66    49   105    1
    67    49   106    1
    68    49   107    1
    69    50   108    1
    70    51    59    1
    71    52   109    1
    72    52   110    1
    73    52   111    1
    74    53    54    1
    75    54    55    2
    76    54    56    1
    77    56   112    1
    78    56   113    1
    79    56   114    1
    80    57   115    1
    81    57   116    1
    82    57   117    1
    83    58   118    1
    84    58   119    1
    85    58   120    1
    86    59   121    1
    87    59   122    1
    88    59   123    1
    89    60    61    2
    90     1    47    1
    91     1    62    1
    92     2    63    1
    93     3    64    1
    94     4    65    1
    95     5     6    1
    96     7     8    2
    97     9    78    1
    98    15    79    1
    99    18    80    1
   100    18    81    1
   101    19    82    1
   102    19    83    1
   103    20    23    1
   104    21    84    1
   105    21    85    1
   106    22    86    1
   107    22    87    1
   108    27    45    1
   109    28    34    1
   110    32    58    1
   111    33    46    2
   112    36    51    1
   113    36    66    1
   114    37    52    1
   115    37    67    1
   116    38    53    1
   117    38    68    1
   118    42    48    1
   119    42    72    1
   120    43    44    2
   121    60    73    1
   122    61    74    1
   123    39    69    1
   124    39    57    1
   125    40    70    1
   126    40    50    1
   127    41    71    1
   128    41    49    1
