@<TRIPOS>MOLECULE
*****
 123 128 0 0 0
SMALL
GASTEIGER

@<TRIPOS>ATOM
     1 C         5.313916   1.15482   0.471947 C.3        1 UNL1     0.0009
     2 C         6.873019   1.628258   -0.412412 C.2        1 UNL1     -0.0787
     3 C         8.132833   1.258485   -1.02248 C.2        1 UNL1     -0.0649
     4 C         9.20662   2.250871   -1.876008 C.2        1 UNL1     -0.0542
     5 C         10.274131   2.275764   -2.807071 C.2        1 UNL1     0.0115
     6 C         11.301444   1.390549   -3.564926 C.3        1 UNL1     -0.0348
     7 C         10.613032   3.650338   -3.563828 C.2        1 UNL1     0.2441
     8 O         11.551262   4.369458   -3.248999 O.2        1 UNL1     -0.2702
     9 N         9.922852   3.842461   -4.773329 N.am        1 UNL1     -0.2772
     10 C         8.713328   4.456968   -4.543643 C.2        1 UNL1     0.1049
     11 C         7.719648   3.667665   -4.177823 C.2        1 UNL1     0.0801
     12 C         7.665759   6.391702   -3.353375 C.ar        1 UNL1     0.0753
     13 C         6.730496   5.452269   -2.8136 C.ar        1 UNL1     0.0305
     14 C         6.64811   4.081563   -3.313028 C.2        1 UNL1     0.0924
     15 N         7.631895   2.326529   -4.191293 N.pl3        1 UNL1     -0.3170
     16 C         6.278397   1.971362   -3.8564 C.3        1 UNL1     0.1275
     17 N         5.787272   3.115938   -3.004072 N.2        1 UNL1     -0.2557
     18 C         5.464797   2.024159   -5.145961 C.3        1 UNL1     0.0016
     19 C         6.118198   1.110912   -6.170967 C.3        1 UNL1     0.0026
     20 N         6.160107   -0.24177   -5.632894 N.3        1 UNL1     -0.3018
     21 C         6.869627   -0.382704   -4.359675 C.3        1 UNL1     0.0026
     22 C         6.193803   0.539749   -3.343684 C.3        1 UNL1     0.0016
     23 C         6.485305   -1.237371   -6.634726 C.3        1 UNL1     0.0012
     24 C         5.319739   -1.409264   -7.621471 C.3        1 UNL1     -0.0339
     25 C         5.54676   -0.596896   -8.906997 C.3        1 UNL1     -0.0615
     26 C         5.104629   -2.882455   -7.92183 C.3        1 UNL1     -0.0615
     27 C         7.657086   7.727222   -2.957864 C.ar        1 UNL1     0.1347
     28 C         6.738778   8.246993   -2.063102 C.ar        1 UNL1     0.0342
     29 C         5.859042   7.293577   -1.507921 C.ar        1 UNL1     0.1435
     30 C         5.879518   5.945422   -1.867475 C.ar        1 UNL1     0.0774
     31 O         4.836661   7.661371   -0.705131 O.3        1 UNL1     -0.4436
     32 C         3.93046   6.548482   -0.739071 C.3        1 UNL1     0.3143
     33 C         4.780924   5.356888   -1.13026 C.2        1 UNL1     0.2504
     34 C         6.508153   9.70613   -1.784124 C.3        1 UNL1     -0.0327
     35 O         3.485344   6.320494   0.603741 O.2        1 UNL1     -0.4528
     36 C         -0.017225   4.887408   0.309865 C.3        1 UNL1     0.0854
     37 C         -0.505499   3.59938   -0.458311 C.3        1 UNL1     0.0236
     38 C         -1.310541   2.541813   0.439021 C.3        1 UNL1     0.1131
     39 C         -0.697939   2.049848   1.811959 C.3        1 UNL1     0.0200
     40 C         0.918212   1.651771   1.921634 C.3        1 UNL1     0.0661
     41 C         1.760606   0.618959   0.872213 C.3        1 UNL1     0.0091
     42 C         3.512357   0.646038   0.328122 C.3        1 UNL1     0.0661
     43 C         8.587396   5.916396   -4.414945 C.2        1 UNL1     0.2131
     44 O         9.135619   6.656656   -5.211314 O.2        1 UNL1     -0.2851
     45 O         8.630289   8.566023   -3.497055 O.3        1 UNL1     -0.5056
     46 O         4.603499   4.187338   -0.872337 O.2        1 UNL1     -0.2836
     47 C         5.615424   0.828947   1.959522 C.3        1 UNL1     -0.0566
     48 O         3.729709   -0.800267   0.573226 O.3        1 UNL1     -0.3909
     49 C         0.91871   0.385133   -0.362303 C.3        1 UNL1     -0.0577
     50 O         1.698366   2.796448   2.202346 O.3        1 UNL1     -0.3910
     51 O         -0.190688   4.87317   1.708843 O.3        1 UNL1     -0.3753
     52 C         0.517314   3.152208   -1.553227 C.3        1 UNL1     -0.0564
     53 O         -2.057056   1.517513   -0.364626 O.3        1 UNL1     -0.4608
     54 C         -2.501199   0.308697   0.103808 C.2        1 UNL1     0.3042
     55 O         -2.09061   -0.808967   -0.206163 O.2        1 UNL1     -0.2512
     56 C         -3.571718   0.426116   1.151146 C.3        1 UNL1     0.0332
     57 C         -1.322287   2.957539   2.971468 C.3        1 UNL1     -0.0567
     58 C         2.92422   6.838307   -1.877058 C.3        1 UNL1     0.0210
     59 C         -0.323589   6.160586   2.309478 C.3        1 UNL1     0.0372
     60 C         1.398151   5.271844   0.056725 C.2        1 UNL1     -0.0208
     61 C         2.355536   5.651648   0.904019 C.2        1 UNL1     0.0882
     62 H         4.999187   2.20486   0.439182 H        1 UNL1     0.0365
     63 H         6.77607   2.715839   -0.427892 H        1 UNL1     0.0576
     64 H         8.434285   0.213638   -1.125094 H        1 UNL1     0.0615
     65 H         8.866059   3.263602   -1.643893 H        1 UNL1     0.0622
     66 H         -0.629056   5.702613   -0.101414 H        1 UNL1     0.0645
     67 H         -1.301644   3.971361   -1.126401 H        1 UNL1     0.0362
     68 H         -2.181307   3.157289   0.711929 H        1 UNL1     0.0741
     69 H         -1.188809   1.130614   2.102585 H        1 UNL1     0.0359
     70 H         0.910438   1.08273   2.870945 H        1 UNL1     0.0600
     71 H         1.634968   -0.343419   1.406068 H        1 UNL1     0.0348
     72 H         3.47076   1.249223   1.246681 H        1 UNL1     0.0602
     73 H         1.561385   5.333384   -0.990564 H        1 UNL1     0.0628
     74 H         2.288736   5.5649   1.989031 H        1 UNL1     0.1022
     75 H         11.148839   0.312623   -3.316289 H        1 UNL1     0.0279
     76 H         11.235511   1.392142   -4.650614 H        1 UNL1     0.0279
     77 H         12.334169   1.548275   -3.220975 H        1 UNL1     0.0279
     78 H         9.73125   2.940676   -5.204779 H        1 UNL1     0.1553
     79 H         8.229858   1.734707   -4.738211 H        1 UNL1     0.1484
     80 H         4.434921   1.713844   -4.931892 H        1 UNL1     0.0317
     81 H         5.4099   3.047551   -5.532364 H        1 UNL1     0.0317
     82 H         7.125069   1.459735   -6.443815 H        1 UNL1     0.0428
     83 H         5.52316   1.165014   -7.083137 H        1 UNL1     0.0428
     84 H         6.818042   -1.391377   -3.938095 H        1 UNL1     0.0428
     85 H         7.946551   -0.193885   -4.468759 H        1 UNL1     0.0428
     86 H         6.650238   0.312813   -2.398086 H        1 UNL1     0.0317
     87 H         5.149142   0.237756   -3.200226 H        1 UNL1     0.0317
     88 H         7.365147   -0.887825   -7.190596 H        1 UNL1     0.0429
     89 H         6.756811   -2.1949   -6.171911 H        1 UNL1     0.0429
     90 H         4.393914   -1.061858   -7.147794 H        1 UNL1     0.0308
     91 H         6.484741   -0.878363   -9.394921 H        1 UNL1     0.0233
     92 H         4.720629   -0.742515   -9.606935 H        1 UNL1     0.0233
     93 H         5.5989   0.481761   -8.715647 H        1 UNL1     0.0233
     94 H         4.411168   -2.99937   -8.761638 H        1 UNL1     0.0233
     95 H         6.053441   -3.349367   -8.200596 H        1 UNL1     0.0233
     96 H         4.692247   -3.409936   -7.057149 H        1 UNL1     0.0233
     97 H         5.699921   9.862798   -1.075995 H        1 UNL1     0.0280
     98 H         7.390991   10.18788   -1.34393 H        1 UNL1     0.0280
     99 H         6.251242   10.225087   -2.722087 H        1 UNL1     0.0280
     100 H         8.294098   9.346217   -3.901892 H        1 UNL1     0.2922
     101 H         4.685856   0.605743   2.482724 H        1 UNL1     0.0236
     102 H         6.190222   1.606974   2.460786 H        1 UNL1     0.0236
     103 H         6.224023   -0.084271   2.068299 H        1 UNL1     0.0236
     104 H         4.105184   -0.894199   1.470536 H        1 UNL1     0.2098
     105 H         0.700482   1.283727   -0.933895 H        1 UNL1     0.0234
     106 H         1.28532   -0.401934   -1.021129 H        1 UNL1     0.0234
     107 H         0.0   -0.0   0.0 H        1 UNL1     0.0234
     108 H         1.631555   3.389721   1.429473 H        1 UNL1     0.2098
     109 H         1.508698   2.934167   -1.132125 H        1 UNL1     0.0234
     110 H         0.17184   2.294438   -2.140272 H        1 UNL1     0.0234
     111 H         0.678885   3.939332   -2.301743 H        1 UNL1     0.0234
     112 H         -3.865616   -0.56983   1.496198 H        1 UNL1     0.0342
     113 H         -3.261147   1.052884   1.985743 H        1 UNL1     0.0342
     114 H         -4.451683   0.896413   0.691095 H        1 UNL1     0.0342
     115 H         -2.419002   2.894874   2.993337 H        1 UNL1     0.0234
     116 H         -0.959357   2.71199   3.971486 H        1 UNL1     0.0234
     117 H         -1.173807   4.039328   2.811387 H        1 UNL1     0.0234
     118 H         2.105063   7.50109   -1.54735 H        1 UNL1     0.0309
     119 H         3.394716   7.266355   -2.767906 H        1 UNL1     0.0309
     120 H         2.400001   5.937402   -2.214208 H        1 UNL1     0.0309
     121 H         0.614671   6.693552   2.157909 H        1 UNL1     0.0524
     122 H         -1.124248   6.758925   1.843675 H        1 UNL1     0.0524
     123 H         -0.530504   6.060439   3.371198 H        1 UNL1     0.0524
@<TRIPOS>BOND
     1     1     2    1
     2     1    42    1
     3     2     3    2
     4     3     4    1
     5     4     5    2
     6     5     7    1
     7     6    75    1
     8     6    76    1
     9     6    77    1
    10     7     9   am
    11     9    10    1
    12    10    11    2
    13    10    43    1
    14    11    14    1
    15    11    15    1
    16    12    13   ar
    17    12    27   ar
    18    12    43    1
    19    13    14    1
    20    13    30   ar
    21    14    17    2
    22    15    16    1
    23    16    17    1
    24    16    18    1
    25    16    22    1
    26    18    19    1
    27    19    20    1
    28    20    21    1
    29    21    22    1
    30    23    24    1
    31    23    88    1
    32    23    89    1
    33    24    25    1
    34    24    26    1
    35    24    90    1
    36    25    91    1
    37    25    92    1
    38    25    93    1
    39    26    94    1
    40    26    95    1
    41    26    96    1
    42    27    28   ar
    43    28    29   ar
    44    29    30   ar
    45    29    31    1
    46    30    33    1
    47    31    32    1
    48    32    33    1
    49    32    35    1
    50    34    97    1
    51    34    98    1
    52    34    99    1
    53    35    61    1
    54    36    37    1
    55    36    60    1
    56    37    38    1
    57    38    39    1
    58    39    40    1
    59    40    41    1
    60    41    42    1
    61    45   100    1
    62    47   101    1
    63    47   102    1
    64    47   103    1
    65    48   104    1
    66    49   105    1
    67    49   106    1
    68    49   107    1
    69    50   108    1
    70    51    59    1
    71    52   109    1
    72    52   110    1
    73    52   111    1
    74    53    54    1
    75    54    55    2
    76    54    56    1
    77    56   112    1
    78    56   113    1
    79    56   114    1
    80    57   115    1
    81    57   116    1
    82    57   117    1
    83    58   118    1
    84    58   119    1
    85    58   120    1
    86    59   121    1
    87    59   122    1
    88    59   123    1
    89    60    61    2
    90     1    47    1
    91     1    62    1
    92     2    63    1
    93     3    64    1
    94     4    65    1
    95     5     6    1
    96     7     8    2
    97     9    78    1
    98    15    79    1
    99    18    80    1
   100    18    81    1
   101    19    82    1
   102    19    83    1
   103    20    23    1
   104    21    84    1
   105    21    85    1
   106    22    86    1
   107    22    87    1
   108    27    45    1
   109    28    34    1
   110    32    58    1
   111    33    46    2
   112    36    51    1
   113    36    66    1
   114    37    52    1
   115    37    67    1
   116    38    53    1
   117    38    68    1
   118    42    48    1
   119    42    72    1
   120    43    44    2
   121    60    73    1
   122    61    74    1
   123    39    69    1
   124    39    57    1
   125    40    70    1
   126    40    50    1
   127    41    71    1
   128    41    49    1
