@<TRIPOS>MOLECULE
*****
 123 128 0 0 0
SMALL
GASTEIGER

@<TRIPOS>ATOM
     1 C         5.168036   1.747194   0.48784 C.3        1 UNL1     0.0009
     2 C         6.604281   2.553192   -0.363397 C.2        1 UNL1     -0.0787
     3 C         7.885611   2.454875   -1.030161 C.2        1 UNL1     -0.0649
     4 C         8.76281   3.690012   -1.786016 C.2        1 UNL1     -0.0542
     5 C         9.782182   3.982692   -2.725323 C.2        1 UNL1     0.0115
     6 C         10.909528   3.357228   -3.592045 C.3        1 UNL1     -0.0348
     7 C         9.877457   5.466127   -3.331402 C.2        1 UNL1     0.2441
     8 O         10.701864   6.287418   -2.954097 O.2        1 UNL1     -0.2702
     9 N         9.126376   5.673697   -4.501421 N.am        1 UNL1     -0.2772
     10 C         7.844015   6.060628   -4.186532 C.2        1 UNL1     0.1049
     11 C         6.998188   5.089351   -3.894263 C.2        1 UNL1     0.0801
     12 C         6.547173   7.667162   -2.774235 C.ar        1 UNL1     0.0753
     13 C         5.788153   6.539306   -2.326532 C.ar        1 UNL1     0.0305
     14 C         5.904217   5.233791   -2.97245 C.2        1 UNL1     0.0924
     15 N         7.120315   3.760392   -4.053897 N.pl3        1 UNL1     -0.3170
     16 C         5.850536   3.161469   -3.738928 C.3        1 UNL1     0.1275
     17 N         5.215169   4.116549   -2.758187 N.2        1 UNL1     -0.2557
     18 C         4.996715   3.221202   -5.00191 C.3        1 UNL1     0.0016
     19 C         5.750522   2.537281   -6.131342 C.3        1 UNL1     0.0026
     20 N         6.020584   1.158974   -5.74616 N.3        1 UNL1     -0.3018
     21 C         6.784866   0.997951   -4.507486 C.3        1 UNL1     0.0026
     22 C         6.007191   1.688309   -3.385648 C.3        1 UNL1     0.0016
     23 C         6.463994   0.339688   -6.856475 C.3        1 UNL1     0.0012
     24 C         5.30771   0.090863   -7.837725 C.3        1 UNL1     -0.0339
     25 C         5.342774   1.083397   -9.011482 C.3        1 UNL1     -0.0615
     26 C         5.336033   -1.34848   -8.32174 C.3        1 UNL1     -0.0615
     27 C         6.343288   8.934731   -2.234033 C.ar        1 UNL1     0.1347
     28 C         5.385057   9.204223   -1.27319 C.ar        1 UNL1     0.0342
     29 C         4.683542   8.069813   -0.812588 C.ar        1 UNL1     0.1435
     30 C         4.902232   6.787895   -1.318632 C.ar        1 UNL1     0.0774
     31 O         3.643252   8.183382   0.041757 O.3        1 UNL1     -0.4436
     32 C         2.921121   6.95081   -0.100248 C.3        1 UNL1     0.3143
     33 C         3.933723   5.957602   -0.633526 C.2        1 UNL1     0.2504
     34 C         4.938945   10.570304   -0.831708 C.3        1 UNL1     -0.0327
     35 O         2.561399   6.513772   1.21613 O.2        1 UNL1     -0.4528
     36 C         -0.682495   4.582618   0.821312 C.3        1 UNL1     0.0854
     37 C         -0.988859   3.322416   -0.076215 C.3        1 UNL1     0.0236
     38 C         -1.589143   2.061278   0.71178 C.3        1 UNL1     0.1131
     39 C         -0.862504   1.529713   2.012435 C.3        1 UNL1     0.0200
     40 C         0.79868   1.383693   2.052242 C.3        1 UNL1     0.0661
     41 C         1.75691   0.614981   0.882419 C.3        1 UNL1     0.0091
     42 C         3.464152   0.977249   0.317183 C.3        1 UNL1     0.0661
     43 C         7.496271   7.459565   -3.896009 C.2        1 UNL1     0.2131
     44 O         7.895835   8.357767   -4.614562 O.2        1 UNL1     -0.2851
     45 O         7.15548   9.969763   -2.692827 O.3        1 UNL1     -0.5056
     46 O         3.949481   4.75402   -0.503154 O.2        1 UNL1     -0.2836
     47 C         5.565418   1.317138   1.925588 C.3        1 UNL1     -0.0566
     48 O         3.912387   -0.434007   0.398154 O.3        1 UNL1     -0.3909
     49 C         0.921675   0.383027   -0.356966 C.3        1 UNL1     -0.0577
     50 O         1.399529   2.60126   2.444966 O.3        1 UNL1     -0.3910
     51 O         -0.805532   4.392527   2.212771 O.3        1 UNL1     -0.3753
     52 C         0.054636   3.162027   -1.229619 C.3        1 UNL1     -0.0564
     53 O         -2.19275   1.022754   -0.187915 O.3        1 UNL1     -0.4608
     54 C         -2.427255   -0.284042   0.151527 C.2        1 UNL1     0.3042
     55 O         -1.858785   -1.28319   -0.287088 O.2        1 UNL1     -0.2512
     56 C         -3.466469   -0.449741   1.223578 C.3        1 UNL1     0.0332
     57 C         -1.582342   2.198502   3.274469 C.3        1 UNL1     -0.0567
     58 C         1.845133   7.196551   -1.18348 C.3        1 UNL1     0.0210
     59 C         -1.117811   5.571382   2.95348 C.3        1 UNL1     0.0372
     60 C         0.646493   5.211404   0.589841 C.2        1 UNL1     -0.0208
     61 C         1.560242   5.646102   1.458659 C.2        1 UNL1     0.0882
     62 H         4.692462   2.731472   0.575801 H        1 UNL1     0.0365
     63 H         6.338414   3.607032   -0.257543 H        1 UNL1     0.0576
     64 H         8.342817   1.487968   -1.251882 H        1 UNL1     0.0615
     65 H         8.276261   4.605434   -1.438518 H        1 UNL1     0.0622
     66 H         -1.427183   5.329454   0.511921 H        1 UNL1     0.0645
     67 H         -1.854808   3.632219   -0.686718 H        1 UNL1     0.0362
     68 H         -2.535809   2.498309   1.064412 H        1 UNL1     0.0741
     69 H         -1.194155   0.518646   2.20778 H        1 UNL1     0.0359
     70 H         0.910973   0.723051   2.933152 H        1 UNL1     0.0600
     71 H         1.800547   -0.406332   1.309002 H        1 UNL1     0.0348
     72 H         3.359191   1.465174   1.297095 H        1 UNL1     0.0602
     73 H         0.763615   5.408948   -0.446744 H        1 UNL1     0.0628
     74 H         1.543493   5.435105   2.528442 H        1 UNL1     0.1022
     75 H         10.951741   2.251477   -3.44182 H        1 UNL1     0.0279
     76 H         10.796533   3.442985   -4.670445 H        1 UNL1     0.0279
     77 H         11.915065   3.659097   -3.264217 H        1 UNL1     0.0279
     78 H         9.06371   4.803932   -5.026452 H        1 UNL1     0.1553
     79 H         7.78497   3.332408   -4.671955 H        1 UNL1     0.1484
     80 H         4.035451   2.730478   -4.807159 H        1 UNL1     0.0317
     81 H         4.770182   4.258104   -5.272406 H        1 UNL1     0.0317
     82 H         6.681136   3.068398   -6.379908 H        1 UNL1     0.0428
     83 H         5.124671   2.592881   -7.02256 H        1 UNL1     0.0428
     84 H         6.905139   -0.045132   -4.19874 H        1 UNL1     0.0428
     85 H         7.814979   1.365725   -4.612015 H        1 UNL1     0.0428
     86 H         6.524271   1.437515   -2.478058 H        1 UNL1     0.0317
     87 H         5.027712   1.210909   -3.259922 H        1 UNL1     0.0317
     88 H         7.259787   0.881424   -7.384233 H        1 UNL1     0.0429
     89 H         6.896603   -0.606317   -6.506191 H        1 UNL1     0.0429
     90 H         4.355136   0.210042   -7.307997 H        1 UNL1     0.0308
     91 H         6.2955   1.032518   -9.547044 H        1 UNL1     0.0233
     92 H         4.527266   0.88387   -9.710584 H        1 UNL1     0.0233
     93 H         5.2172   2.122439   -8.683676 H        1 UNL1     0.0233
     94 H         4.640837   -1.47949   -9.158026 H        1 UNL1     0.0233
     95 H         6.339186   -1.604554   -8.673981 H        1 UNL1     0.0233
     96 H         5.053545   -2.042869   -7.525503 H        1 UNL1     0.0233
     97 H         4.139887   10.520656   -0.098037 H        1 UNL1     0.0280
     98 H         5.749816   11.136488   -0.355074 H        1 UNL1     0.0280
     99 H         4.573536   11.138588   -1.702699 H        1 UNL1     0.0280
     100 H         6.688415   10.721128   -3.013644 H        1 UNL1     0.2922
     101 H         4.702889   0.883584   2.431287 H        1 UNL1     0.0236
     102 H         6.01689   2.122177   2.504439 H        1 UNL1     0.0236
     103 H         6.321441   0.514256   1.923633 H        1 UNL1     0.0236
     104 H         4.332271   -0.560475   1.271466 H        1 UNL1     0.2098
     105 H         0.70882   1.282094   -0.929837 H        1 UNL1     0.0234
     106 H         1.290316   -0.404897   -1.01363 H        1 UNL1     0.0234
     107 H         0.0   -0.0   0.0 H        1 UNL1     0.0234
     108 H         1.205999   3.258118   1.748653 H        1 UNL1     0.2098
     109 H         1.079745   3.048148   -0.850283 H        1 UNL1     0.0234
     110 H         -0.178583   2.3352   -1.909112 H        1 UNL1     0.0234
     111 H         0.07555   4.045034   -1.882158 H        1 UNL1     0.0234
     112 H         -3.589967   -1.510658   1.461378 H        1 UNL1     0.0342
     113 H         -3.228678   0.125793   2.11692 H        1 UNL1     0.0342
     114 H         -4.424094   -0.078358   0.833459 H        1 UNL1     0.0342
     115 H         -2.652005   1.950512   3.313358 H        1 UNL1     0.0234
     116 H         -1.14519   1.918326   4.234911 H        1 UNL1     0.0234
     117 H         -1.620673   3.300383   3.226208 H        1 UNL1     0.0234
     118 H         0.943903   7.682172   -0.770002 H        1 UNL1     0.0309
     119 H         2.213559   7.785989   -2.029073 H        1 UNL1     0.0309
     120 H         1.457065   6.264866   -1.609477 H        1 UNL1     0.0309
     121 H         -0.296677   6.274361   2.815947 H        1 UNL1     0.0524
     122 H         -2.037761   6.06079   2.592637 H        1 UNL1     0.0524
     123 H         -1.235001   5.333353   4.006904 H        1 UNL1     0.0524
@<TRIPOS>BOND
     1     1     2    1
     2     1    42    1
     3     2     3    2
     4     3     4    1
     5     4     5    2
     6     5     7    1
     7     6    75    1
     8     6    76    1
     9     6    77    1
    10     7     9   am
    11     9    10    1
    12    10    11    2
    13    10    43    1
    14    11    14    1
    15    11    15    1
    16    12    13   ar
    17    12    27   ar
    18    12    43    1
    19    13    14    1
    20    13    30   ar
    21    14    17    2
    22    15    16    1
    23    16    17    1
    24    16    18    1
    25    16    22    1
    26    18    19    1
    27    19    20    1
    28    20    21    1
    29    21    22    1
    30    23    24    1
    31    23    88    1
    32    23    89    1
    33    24    25    1
    34    24    26    1
    35    24    90    1
    36    25    91    1
    37    25    92    1
    38    25    93    1
    39    26    94    1
    40    26    95    1
    41    26    96    1
    42    27    28   ar
    43    28    29   ar
    44    29    30   ar
    45    29    31    1
    46    30    33    1
    47    31    32    1
    48    32    33    1
    49    32    35    1
    50    34    97    1
    51    34    98    1
    52    34    99    1
    53    35    61    1
    54    36    37    1
    55    36    60    1
    56    37    38    1
    57    38    39    1
    58    39    40    1
    59    40    41    1
    60    41    42    1
    61    45   100    1
    62    47   101    1
    63    47   102    1
    64    47   103    1
    65    48   104    1
    66    49   105    1
    67    49   106    1
    68    49   107    1
    69    50   108    1
    70    51    59    1
    71    52   109    1
    72    52   110    1
    73    52   111    1
    74    53    54    1
    75    54    55    2
    76    54    56    1
    77    56   112    1
    78    56   113    1
    79    56   114    1
    80    57   115    1
    81    57   116    1
    82    57   117    1
    83    58   118    1
    84    58   119    1
    85    58   120    1
    86    59   121    1
    87    59   122    1
    88    59   123    1
    89    60    61    2
    90     1    47    1
    91     1    62    1
    92     2    63    1
    93     3    64    1
    94     4    65    1
    95     5     6    1
    96     7     8    2
    97     9    78    1
    98    15    79    1
    99    18    80    1
   100    18    81    1
   101    19    82    1
   102    19    83    1
   103    20    23    1
   104    21    84    1
   105    21    85    1
   106    22    86    1
   107    22    87    1
   108    27    45    1
   109    28    34    1
   110    32    58    1
   111    33    46    2
   112    36    51    1
   113    36    66    1
   114    37    52    1
   115    37    67    1
   116    38    53    1
   117    38    68    1
   118    42    48    1
   119    42    72    1
   120    43    44    2
   121    60    73    1
   122    61    74    1
   123    39    69    1
   124    39    57    1
   125    40    70    1
   126    40    50    1
   127    41    71    1
   128    41    49    1
