@<TRIPOS>MOLECULE
*****
 123 128 0 0 0
SMALL
GASTEIGER

@<TRIPOS>ATOM
     1 C         -1.803093   4.366012   -0.947696 C.3        1 UNL1     0.0009
     2 C         -1.520605   5.597988   -2.303967 C.2        1 UNL1     -0.0787
     3 C         -1.054731   6.895902   -2.744905 C.2        1 UNL1     -0.0649
     4 C         -0.937012   7.475434   -4.331298 C.2        1 UNL1     -0.0542
     5 C         -0.326099   8.436607   -5.173917 C.2        1 UNL1     0.0115
     6 C         0.538555   9.727153   -5.187655 C.3        1 UNL1     -0.0348
     7 C         -0.325131   8.190391   -6.760223 C.2        1 UNL1     0.2441
     8 O         -1.090507   8.763784   -7.523077 O.2        1 UNL1     -0.2702
     9 N         0.782301   7.472349   -7.244125 N.am        1 UNL1     -0.2772
     10 C         0.534562   6.119613   -7.198822 C.2        1 UNL1     0.1049
     11 C         0.742133   5.528497   -6.036188 C.2        1 UNL1     0.0801
     12 C         -1.166519   4.3928   -7.816702 C.ar        1 UNL1     0.0753
     13 C         -1.057012   3.916657   -6.471375 C.ar        1 UNL1     0.0305
     14 C         -0.001958   4.387205   -5.576669 C.2        1 UNL1     0.0924
     15 N         1.357707   5.985791   -4.93234 N.pl3        1 UNL1     -0.3170
     16 C         1.468801   4.890756   -4.00562 C.3        1 UNL1     0.1275
     17 N         0.308331   3.988071   -4.346491 N.2        1 UNL1     -0.2557
     18 C         2.730507   4.114942   -4.371559 C.3        1 UNL1     0.0016
     19 C         3.911563   5.072269   -4.356656 C.3        1 UNL1     0.0026
     20 N         4.023017   5.656966   -3.02747 N.3        1 UNL1     -0.3018
     21 C         2.833532   6.37266   -2.561343 C.3        1 UNL1     0.0026
     22 C         1.660518   5.391035   -2.579958 C.3        1 UNL1     0.0016
     23 C         5.280415   6.346832   -2.818472 C.3        1 UNL1     0.0012
     24 C         6.075799   6.426347   -4.131026 C.3        1 UNL1     -0.0339
     25 C         7.57418   6.173265   -3.896806 C.3        1 UNL1     -0.0615
     26 C         5.498014   5.459059   -5.149505 C.3        1 UNL1     -0.0615
     27 C         -2.097911   3.852193   -8.700088 C.ar        1 UNL1     0.1347
     28 C         -2.943062   2.809032   -8.366045 C.ar        1 UNL1     0.0342
     29 C         -2.851243   2.389474   -7.021908 C.ar        1 UNL1     0.1435
     30 C         -1.948131   2.94622   -6.115463 C.ar        1 UNL1     0.0774
     31 O         -3.529674   1.311251   -6.572271 O.3        1 UNL1     -0.4436
     32 C         -2.84483   0.927129   -5.370475 C.3        1 UNL1     0.3143
     33 C         -2.135853   2.181181   -4.900456 C.2        1 UNL1     0.2504
     34 C         -3.785071   2.014692   -9.325286 C.3        1 UNL1     -0.0327
     35 O         -3.844027   0.620524   -4.390246 O.2        1 UNL1     -0.4528
     36 C         -2.31043   -2.015501   -2.130259 C.3        1 UNL1     0.0854
     37 C         -0.980158   -1.951868   -1.285363 C.3        1 UNL1     0.0236
     38 C         -1.157523   -2.25876   0.278639 C.3        1 UNL1     0.1131
     39 C         -2.263049   -1.490367   1.109092 C.3        1 UNL1     0.0200
     40 C         -2.483816   0.150534   0.906254 C.3        1 UNL1     0.0661
     41 C         -1.26383   1.328756   0.938477 C.3        1 UNL1     0.0091
     42 C         -1.120755   2.918658   0.034517 C.3        1 UNL1     0.0661
     43 C         -0.194714   5.419972   -8.267004 C.2        1 UNL1     0.2131
     44 O         0.08029   5.619572   -9.436307 O.2        1 UNL1     -0.2851
     45 O         -2.170861   4.403447   -9.977678 O.3        1 UNL1     -0.5056
     46 O         -1.817629   2.489493   -3.773721 O.2        1 UNL1     -0.2836
     47 C         -3.024741   4.783655   -0.085645 C.3        1 UNL1     -0.0566
     48 O         -0.742972   3.69949   1.237305 O.3        1 UNL1     -0.3909
     49 C         0.080241   0.642354   0.839383 C.3        1 UNL1     -0.0577
     50 O         -3.376387   0.408231   -0.158937 O.3        1 UNL1     -0.3910
     51 O         -3.502877   -2.15856   -1.391994 O.3        1 UNL1     -0.3753
     52 C         -0.010039   -0.843535   -1.810166 C.3        1 UNL1     -0.0564
     53 O         0.136148   -2.537699   0.986407 O.3        1 UNL1     -0.4608
     54 C         0.267634   -3.242335   2.154366 C.2        1 UNL1     0.3042
     55 O         0.887111   -4.291078   2.328219 O.2        1 UNL1     -0.2512
     56 C         -0.393212   -2.583706   3.331737 C.3        1 UNL1     0.0332
     57 C         -3.565368   -2.417878   1.152261 C.3        1 UNL1     -0.0567
     58 C         -1.784705   -0.119101   -5.786489 C.3        1 UNL1     0.0210
     59 C         -4.570772   -2.79197   -2.095028 C.3        1 UNL1     0.0372
     60 C         -2.517702   -0.874926   -3.063687 C.2        1 UNL1     -0.0208
     61 C         -3.606407   -0.144068   -3.30723 C.2        1 UNL1     0.0882
     62 H         -2.176094   3.656413   -1.696062 H        1 UNL1     0.0365
     63 H         -1.965503   5.072959   -3.151835 H        1 UNL1     0.0576
     64 H         -0.562452   7.590275   -2.060349 H        1 UNL1     0.0615
     65 H         -1.521923   6.759051   -4.914529 H        1 UNL1     0.0622
     66 H         -2.192658   -2.905838   -2.763882 H        1 UNL1     0.0645
     67 H         -0.408236   -2.835179   -1.618871 H        1 UNL1     0.0362
     68 H         -1.506313   -3.301251   0.223133 H        1 UNL1     0.0741
     69 H         -2.025327   -1.569325   2.161547 H        1 UNL1     0.0359
     70 H         -3.06825   0.378467   1.818144 H        1 UNL1     0.0600
     71 H         -1.28868   1.603433   2.011274 H        1 UNL1     0.0348
     72 H         -2.185399   2.645336   0.000707 H        1 UNL1     0.0602
     73 H         -1.653482   -0.757656   -3.669177 H        1 UNL1     0.0628
     74 H         -4.510592   -0.162617   -2.69785 H        1 UNL1     0.1022
     75 H         0.14226   10.472338   -4.456434 H        1 UNL1     0.0279
     76 H         1.57478   9.6202   -4.874818 H        1 UNL1     0.0279
     77 H         0.455381   10.284737   -6.132051 H        1 UNL1     0.0279
     78 H         1.592316   7.655311   -6.655502 H        1 UNL1     0.1553
     79 H         1.987608   6.76691   -4.929028 H        1 UNL1     0.1484
     80 H         2.868441   3.297502   -3.653554 H        1 UNL1     0.0317
     81 H         2.632273   3.651488   -5.359087 H        1 UNL1     0.0317
     82 H         3.812721   5.852768   -5.125398 H        1 UNL1     0.0428
     83 H         4.8003   4.498881   -4.622029 H        1 UNL1     0.0428
     84 H         2.914049   6.732924   -1.531034 H        1 UNL1     0.0428
     85 H         2.647766   7.282677   -3.148435 H        1 UNL1     0.0428
     86 H         0.8437   5.907003   -2.110305 H        1 UNL1     0.0317
     87 H         1.859658   4.556203   -1.896954 H        1 UNL1     0.0317
     88 H         5.057949   7.367978   -2.482222 H        1 UNL1     0.0429
     89 H         5.870656   5.868739   -2.026124 H        1 UNL1     0.0429
     90 H         5.954131   7.425995   -4.564747 H        1 UNL1     0.0308
     91 H         8.030245   6.986687   -3.324571 H        1 UNL1     0.0233
     92 H         7.728425   5.230928   -3.36594 H        1 UNL1     0.0233
     93 H         8.135528   6.090918   -4.835391 H        1 UNL1     0.0233
     94 H         4.585945   4.996993   -4.756491 H        1 UNL1     0.0233
     95 H         5.23654   5.994255   -6.066652 H        1 UNL1     0.0233
     96 H         6.209484   4.665493   -5.39452 H        1 UNL1     0.0233
     97 H         -4.273207   1.174835   -8.839906 H        1 UNL1     0.0280
     98 H         -4.590493   2.616932   -9.765582 H        1 UNL1     0.0280
     99 H         -3.150131   1.623369   -10.136959 H        1 UNL1     0.0280
     100 H         -1.340898   4.653155   -10.344323 H        1 UNL1     0.2922
     101 H         -3.882305   4.159729   -0.336554 H        1 UNL1     0.0236
     102 H         -3.256805   5.845736   -0.157144 H        1 UNL1     0.0236
     103 H         -2.853654   4.605124   0.989087 H        1 UNL1     0.0236
     104 H         -1.29229   4.507628   1.248862 H        1 UNL1     0.2098
     105 H         0.916253   1.314993   0.664878 H        1 UNL1     0.0234
     106 H         0.306682   -0.036324   1.661604 H        1 UNL1     0.0234
     107 H         0.0   -0.0   0.0 H        1 UNL1     0.0234
     108 H         -2.989305   0.013118   -0.963811 H        1 UNL1     0.2098
     109 H         0.515253   -1.149903   -2.725545 H        1 UNL1     0.0234
     110 H         -0.505936   0.118767   -1.976911 H        1 UNL1     0.0234
     111 H         0.77637   -0.614531   -1.078685 H        1 UNL1     0.0234
     112 H         0.28493   -2.589538   4.190478 H        1 UNL1     0.0342
     113 H         -0.724517   -1.572035   3.102387 H        1 UNL1     0.0342
     114 H         -1.28147   -3.172063   3.600063 H        1 UNL1     0.0342
     115 H         -4.41048   -1.912817   1.639998 H        1 UNL1     0.0234
     116 H         -3.905122   -2.752095   0.16996 H        1 UNL1     0.0234
     117 H         -3.450178   -3.308353   1.793921 H        1 UNL1     0.0234
     118 H         -2.075617   -1.143132   -5.493683 H        1 UNL1     0.0309
     119 H         -1.562218   -0.102581   -6.858137 H        1 UNL1     0.0309
     120 H         -0.826723   0.027132   -5.275615 H        1 UNL1     0.0309
     121 H         -5.038762   -2.040491   -2.73034 H        1 UNL1     0.0524
     122 H         -4.216307   -3.605759   -2.749352 H        1 UNL1     0.0524
     123 H         -5.296188   -3.194196   -1.393544 H        1 UNL1     0.0524
@<TRIPOS>BOND
     1     1     2    1
     2     1    42    1
     3     2     3    2
     4     3     4    1
     5     4     5    2
     6     5     7    1
     7     6    75    1
     8     6    76    1
     9     6    77    1
    10     7     9   am
    11     9    10    1
    12    10    11    2
    13    10    43    1
    14    11    14    1
    15    11    15    1
    16    12    13   ar
    17    12    27   ar
    18    12    43    1
    19    13    14    1
    20    13    30   ar
    21    14    17    2
    22    15    16    1
    23    16    17    1
    24    16    18    1
    25    16    22    1
    26    18    19    1
    27    19    20    1
    28    20    21    1
    29    21    22    1
    30    23    24    1
    31    23    88    1
    32    23    89    1
    33    24    25    1
    34    24    26    1
    35    24    90    1
    36    25    91    1
    37    25    92    1
    38    25    93    1
    39    26    94    1
    40    26    95    1
    41    26    96    1
    42    27    28   ar
    43    28    29   ar
    44    29    30   ar
    45    29    31    1
    46    30    33    1
    47    31    32    1
    48    32    33    1
    49    32    35    1
    50    34    97    1
    51    34    98    1
    52    34    99    1
    53    35    61    1
    54    36    37    1
    55    36    60    1
    56    37    38    1
    57    38    39    1
    58    39    40    1
    59    40    41    1
    60    41    42    1
    61    45   100    1
    62    47   101    1
    63    47   102    1
    64    47   103    1
    65    48   104    1
    66    49   105    1
    67    49   106    1
    68    49   107    1
    69    50   108    1
    70    51    59    1
    71    52   109    1
    72    52   110    1
    73    52   111    1
    74    53    54    1
    75    54    55    2
    76    54    56    1
    77    56   112    1
    78    56   113    1
    79    56   114    1
    80    57   115    1
    81    57   116    1
    82    57   117    1
    83    58   118    1
    84    58   119    1
    85    58   120    1
    86    59   121    1
    87    59   122    1
    88    59   123    1
    89    60    61    2
    90     1    47    1
    91     1    62    1
    92     2    63    1
    93     3    64    1
    94     4    65    1
    95     5     6    1
    96     7     8    2
    97     9    78    1
    98    15    79    1
    99    18    80    1
   100    18    81    1
   101    19    82    1
   102    19    83    1
   103    20    23    1
   104    21    84    1
   105    21    85    1
   106    22    86    1
   107    22    87    1
   108    27    45    1
   109    28    34    1
   110    32    58    1
   111    33    46    2
   112    36    51    1
   113    36    66    1
   114    37    52    1
   115    37    67    1
   116    38    53    1
   117    38    68    1
   118    42    48    1
   119    42    72    1
   120    43    44    2
   121    60    73    1
   122    61    74    1
   123    39    69    1
   124    39    57    1
   125    40    70    1
   126    40    50    1
   127    41    71    1
   128    41    49    1
