@<TRIPOS>MOLECULE
*****
 123 128 0 0 0
SMALL
GASTEIGER

@<TRIPOS>ATOM
     1 C         -1.824989   2.319726   -2.886798 C.3        1 UNL1     0.0009
     2 C         -3.557267   2.980189   -2.892956 C.2        1 UNL1     -0.0787
     3 C         -4.947092   2.857081   -3.27932 C.2        1 UNL1     -0.0649
     4 C         -6.242909   3.851577   -2.834132 C.2        1 UNL1     -0.0542
     5 C         -7.652211   3.940816   -2.720187 C.2        1 UNL1     0.0115
     6 C         -8.989135   3.23626   -3.080127 C.3        1 UNL1     -0.0348
     7 C         -8.285507   5.087094   -1.791762 C.2        1 UNL1     0.2441
     8 O         -8.772242   6.115006   -2.242331 O.2        1 UNL1     -0.2702
     9 N         -8.480063   4.717305   -0.449542 N.am        1 UNL1     -0.2772
     10 C         -7.34713   4.973387   0.288162 C.2        1 UNL1     0.1049
     11 C         -6.400968   4.053228   0.240132 C.2        1 UNL1     0.0801
     12 C         -5.650412   6.748224   0.766109 C.ar        1 UNL1     0.0753
     13 C         -4.653232   5.757176   0.49766 C.ar        1 UNL1     0.0305
     14 C         -4.997584   4.344363   0.354717 C.2        1 UNL1     0.0924
     15 N         -6.438274   2.800376   -0.245149 N.pl3        1 UNL1     -0.3170
     16 C         -5.198202   2.157982   0.10098 C.3        1 UNL1     0.1275
     17 N         -4.203349   3.288113   0.204866 N.2        1 UNL1     -0.2557
     18 C         -5.355899   1.601499   1.512774 C.3        1 UNL1     0.0016
     19 C         -6.567694   0.683712   1.541216 C.3        1 UNL1     0.0026
     20 N         -6.365988   -0.387439   0.575308 N.3        1 UNL1     -0.3018
     21 C         -6.143406   0.052541   -0.803548 C.3        1 UNL1     0.0026
     22 C         -4.91898   0.969405   -0.809442 C.3        1 UNL1     0.0016
     23 C         -7.312719   -1.47364   0.731867 C.3        1 UNL1     0.0012
     24 C         -7.02409   -2.258022   2.021516 C.3        1 UNL1     -0.0339
     25 C         -7.340954   -3.753125   1.853225 C.3        1 UNL1     -0.0615
     26 C         -5.585237   -2.036845   2.4546 C.3        1 UNL1     -0.0615
     27 C         -5.301695   8.072493   1.020718 C.ar        1 UNL1     0.1347
     28 C         -3.991919   8.515014   1.072802 C.ar        1 UNL1     0.0342
     29 C         -3.029658   7.532367   0.757171 C.ar        1 UNL1     0.1435
     30 C         -3.366278   6.210131   0.464595 C.ar        1 UNL1     0.0774
     31 O         -1.706448   7.779242   0.87194 O.3        1 UNL1     -0.4436
     32 C         -1.09962   6.47997   0.939207 C.3        1 UNL1     0.3143
     33 C         -2.093633   5.543979   0.281884 C.2        1 UNL1     0.2504
     34 C         -3.532702   9.852204   1.583822 C.3        1 UNL1     -0.0327
     35 O         0.06284   6.508889   0.101889 O.2        1 UNL1     -0.4528
     36 C         2.516394   4.05648   1.64262 C.3        1 UNL1     0.0854
     37 C         2.329253   2.521185   1.951438 C.3        1 UNL1     0.0236
     38 C         3.437219   1.561107   1.301511 C.3        1 UNL1     0.1131
     39 C         3.771763   1.679288   -0.240042 C.3        1 UNL1     0.0200
     40 C         2.546503   1.838115   -1.360734 C.3        1 UNL1     0.0661
     41 C         1.16307   0.862031   -1.465527 C.3        1 UNL1     0.0091
     42 C         -0.54184   1.268474   -2.007275 C.3        1 UNL1     0.0661
     43 C         -7.06277   6.30103   0.852835 C.2        1 UNL1     0.2131
     44 O         -7.930475   6.921787   1.439764 O.2        1 UNL1     -0.2851
     45 O         -6.335514   8.983512   1.227366 O.3        1 UNL1     -0.5056
     46 O         -1.880381   4.49546   -0.284671 O.2        1 UNL1     -0.2836
     47 C         -1.164086   2.526493   -4.276199 C.3        1 UNL1     -0.0566
     48 O         -0.665457   0.084149   -2.891135 O.3        1 UNL1     -0.3909
     49 C         1.040703   0.05094   -0.194838 C.3        1 UNL1     -0.0577
     50 O         2.193277   3.196416   -1.527986 O.3        1 UNL1     -0.3910
     51 O         3.516679   4.378372   0.702807 O.3        1 UNL1     -0.3753
     52 C         0.81917   2.121152   2.019043 C.3        1 UNL1     -0.0564
     53 O         3.44932   0.17787   1.883606 O.3        1 UNL1     -0.4608
     54 C         3.67572   -0.977762   1.182759 C.2        1 UNL1     0.3042
     55 O         2.840764   -1.801261   0.810552 O.2        1 UNL1     -0.2512
     56 C         5.115994   -1.181009   0.807241 C.3        1 UNL1     0.0332
     57 C         5.043655   2.638108   -0.385406 C.3        1 UNL1     -0.0567
     58 C         -0.995594   6.122973   2.440294 C.3        1 UNL1     0.0210
     59 C         4.68542   4.982823   1.254665 C.3        1 UNL1     0.0372
     60 C         1.280638   4.767013   1.214589 C.2        1 UNL1     -0.0208
     61 C         1.083693   5.638986   0.224832 C.2        1 UNL1     0.0882
     62 H         -1.522657   3.172085   -2.266483 H        1 UNL1     0.0365
     63 H         -3.411854   3.937757   -2.388588 H        1 UNL1     0.0576
     64 H         -5.322428   1.96791   -3.790795 H        1 UNL1     0.0615
     65 H         -5.759189   4.735465   -2.409585 H        1 UNL1     0.0622
     66 H         2.799815   4.499603   2.607691 H        1 UNL1     0.0645
     67 H         2.565679   2.433129   3.026105 H        1 UNL1     0.0362
     68 H         4.331992   1.933024   1.823604 H        1 UNL1     0.0741
     69 H         4.268644   0.77271   -0.558841 H        1 UNL1     0.0359
     70 H         3.098568   1.580087   -2.284696 H        1 UNL1     0.0600
     71 H         1.521628   0.094541   -2.179216 H        1 UNL1     0.0348
     72 H         0.102972   2.060128   -2.415708 H        1 UNL1     0.0602
     73 H         0.509409   4.582566   1.920588 H        1 UNL1     0.0628
     74 H         1.800998   5.840221   -0.571545 H        1 UNL1     0.1022
     75 H         -8.994562   2.930948   -4.154273 H        1 UNL1     0.0279
     76 H         -9.196381   2.298747   -2.569063 H        1 UNL1     0.0279
     77 H         -9.851966   3.917376   -3.04398 H        1 UNL1     0.0279
     78 H         -8.662794   3.717547   -0.393235 H        1 UNL1     0.1553
     79 H         -7.287488   2.291173   -0.407882 H        1 UNL1     0.1484
     80 H         -4.44046   1.064889   1.78988 H        1 UNL1     0.0317
     81 H         -5.477566   2.410576   2.240952 H        1 UNL1     0.0317
     82 H         -7.498706   1.232143   1.335418 H        1 UNL1     0.0428
     83 H         -6.662739   0.299418   2.557255 H        1 UNL1     0.0428
     84 H         -5.915613   -0.765743   -1.493717 H        1 UNL1     0.0428
     85 H         -7.039527   0.521796   -1.232597 H        1 UNL1     0.0428
     86 H         -4.707417   1.163289   -1.844641 H        1 UNL1     0.0317
     87 H         -4.035062   0.416324   -0.46902 H        1 UNL1     0.0317
     88 H         -8.31944   -1.041579   0.803493 H        1 UNL1     0.0429
     89 H         -7.308408   -2.135666   -0.14362 H        1 UNL1     0.0429
     90 H         -7.64553   -1.858414   2.831664 H        1 UNL1     0.0308
     91 H         -7.204895   -4.296755   2.792935 H        1 UNL1     0.0233
     92 H         -8.366165   -3.893662   1.502794 H        1 UNL1     0.0233
     93 H         -6.694873   -4.235875   1.11001 H        1 UNL1     0.0233
     94 H         -5.367684   -2.621503   3.354979 H        1 UNL1     0.0233
     95 H         -4.902863   -2.36593   1.665911 H        1 UNL1     0.0233
     96 H         -5.391455   -0.982706   2.671873 H        1 UNL1     0.0233
     97 H         -2.835366   9.75487   2.41055 H        1 UNL1     0.0280
     98 H         -3.006677   10.431186   0.813541 H        1 UNL1     0.0280
     99 H         -4.402625   10.43278   1.932048 H        1 UNL1     0.0280
     100 H         -7.0176   8.955227   0.579615 H        1 UNL1     0.2922
     101 H         -0.455215   3.352763   -4.226843 H        1 UNL1     0.0236
     102 H         -1.887875   2.65604   -5.080145 H        1 UNL1     0.0236
     103 H         -0.558826   1.656294   -4.580513 H        1 UNL1     0.0236
     104 H         0.199732   -0.051995   -3.324589 H        1 UNL1     0.2098
     105 H         1.414601   -0.966783   -0.2739 H        1 UNL1     0.0234
     106 H         1.445278   0.534015   0.694479 H        1 UNL1     0.0234
     107 H         0.0   0.0   0.0 H        1 UNL1     0.0234
     108 H         2.994118   3.669983   -1.824895 H        1 UNL1     0.2098
     109 H         0.281004   2.660556   2.81096 H        1 UNL1     0.0234
     110 H         0.296067   2.252386   1.065689 H        1 UNL1     0.0234
     111 H         0.692896   1.054435   2.247334 H        1 UNL1     0.0234
     112 H         5.224088   -2.106879   0.234156 H        1 UNL1     0.0342
     113 H         5.519684   -0.331968   0.257689 H        1 UNL1     0.0342
     114 H         5.699947   -1.287122   1.731852 H        1 UNL1     0.0342
     115 H         5.679541   2.347366   -1.232936 H        1 UNL1     0.0234
     116 H         4.792252   3.693213   -0.510301 H        1 UNL1     0.0234
     117 H         5.755651   2.554671   0.453666 H        1 UNL1     0.0234
     118 H         0.049997   6.122717   2.794901 H        1 UNL1     0.0309
     119 H         -1.590833   6.781514   3.080775 H        1 UNL1     0.0309
     120 H         -1.335173   5.103699   2.654475 H        1 UNL1     0.0309
     121 H         5.139452   5.594518   0.475536 H        1 UNL1     0.0524
     122 H         4.451989   5.646414   2.103897 H        1 UNL1     0.0524
     123 H         5.383135   4.218789   1.585634 H        1 UNL1     0.0524
@<TRIPOS>BOND
     1     1     2    1
     2     1    42    1
     3     2     3    2
     4     3     4    1
     5     4     5    2
     6     5     7    1
     7     6    75    1
     8     6    76    1
     9     6    77    1
    10     7     9   am
    11     9    10    1
    12    10    11    2
    13    10    43    1
    14    11    14    1
    15    11    15    1
    16    12    13   ar
    17    12    27   ar
    18    12    43    1
    19    13    14    1
    20    13    30   ar
    21    14    17    2
    22    15    16    1
    23    16    17    1
    24    16    18    1
    25    16    22    1
    26    18    19    1
    27    19    20    1
    28    20    21    1
    29    21    22    1
    30    23    24    1
    31    23    88    1
    32    23    89    1
    33    24    25    1
    34    24    26    1
    35    24    90    1
    36    25    91    1
    37    25    92    1
    38    25    93    1
    39    26    94    1
    40    26    95    1
    41    26    96    1
    42    27    28   ar
    43    28    29   ar
    44    29    30   ar
    45    29    31    1
    46    30    33    1
    47    31    32    1
    48    32    33    1
    49    32    35    1
    50    34    97    1
    51    34    98    1
    52    34    99    1
    53    35    61    1
    54    36    37    1
    55    36    60    1
    56    37    38    1
    57    38    39    1
    58    39    40    1
    59    40    41    1
    60    41    42    1
    61    45   100    1
    62    47   101    1
    63    47   102    1
    64    47   103    1
    65    48   104    1
    66    49   105    1
    67    49   106    1
    68    49   107    1
    69    50   108    1
    70    51    59    1
    71    52   109    1
    72    52   110    1
    73    52   111    1
    74    53    54    1
    75    54    55    2
    76    54    56    1
    77    56   112    1
    78    56   113    1
    79    56   114    1
    80    57   115    1
    81    57   116    1
    82    57   117    1
    83    58   118    1
    84    58   119    1
    85    58   120    1
    86    59   121    1
    87    59   122    1
    88    59   123    1
    89    60    61    2
    90     1    47    1
    91     1    62    1
    92     2    63    1
    93     3    64    1
    94     4    65    1
    95     5     6    1
    96     7     8    2
    97     9    78    1
    98    15    79    1
    99    18    80    1
   100    18    81    1
   101    19    82    1
   102    19    83    1
   103    20    23    1
   104    21    84    1
   105    21    85    1
   106    22    86    1
   107    22    87    1
   108    27    45    1
   109    28    34    1
   110    32    58    1
   111    33    46    2
   112    36    51    1
   113    36    66    1
   114    37    52    1
   115    37    67    1
   116    38    53    1
   117    38    68    1
   118    42    48    1
   119    42    72    1
   120    43    44    2
   121    60    73    1
   122    61    74    1
   123    39    69    1
   124    39    57    1
   125    40    70    1
   126    40    50    1
   127    41    71    1
   128    41    49    1
