@<TRIPOS>MOLECULE
*****
 123 128 0 0 0
SMALL
GASTEIGER

@<TRIPOS>ATOM
     1 C         0.295114   -2.720104   -4.638306 C.3        1 UNL1     0.0009
     2 C         -0.718435   -3.699945   -5.842327 C.2        1 UNL1     -0.0787
     3 C         -1.054329   -4.962521   -6.466125 C.2        1 UNL1     -0.0649
     4 C         -2.309612   -5.283339   -7.55594 C.2        1 UNL1     -0.0542
     5 C         -3.124141   -6.293769   -8.123965 C.2        1 UNL1     0.0115
     6 C         -3.314118   -7.830228   -8.252511 C.3        1 UNL1     -0.0348
     7 C         -4.491396   -5.871753   -8.851636 C.2        1 UNL1     0.2441
     8 O         -4.607254   -5.813377   -10.068063 O.2        1 UNL1     -0.2702
     9 N         -5.616874   -5.827386   -8.010517 N.am        1 UNL1     -0.2772
     10 C         -5.733579   -4.585505   -7.429625 C.2        1 UNL1     0.1049
     11 C         -5.000735   -4.376269   -6.351023 C.2        1 UNL1     0.0801
     12 C         -5.724819   -2.140267   -7.956947 C.ar        1 UNL1     0.0753
     13 C         -4.76562   -1.996593   -6.904377 C.ar        1 UNL1     0.0305
     14 C         -4.472451   -3.091012   -5.981691 C.2        1 UNL1     0.0924
     15 N         -4.309062   -5.245727   -5.594612 N.pl3        1 UNL1     -0.3170
     16 C         -3.827123   -4.536441   -4.439232 C.3        1 UNL1     0.1275
     17 N         -3.696735   -3.105671   -4.901423 N.2        1 UNL1     -0.2557
     18 C         -4.946853   -4.546349   -3.402985 C.3        1 UNL1     0.0016
     19 C         -5.346772   -5.988117   -3.132878 C.3        1 UNL1     0.0026
     20 N         -4.180257   -6.71464   -2.650763 N.3        1 UNL1     -0.3018
     21 C         -3.027465   -6.709217   -3.553764 C.3        1 UNL1     0.0026
     22 C         -2.639871   -5.251424   -3.807742 C.3        1 UNL1     0.0016
     23 C         -4.51472   -8.005908   -2.083838 C.3        1 UNL1     0.0012
     24 C         -3.361087   -8.999991   -2.290445 C.3        1 UNL1     -0.0339
     25 C         -2.510725   -9.147006   -1.017917 C.3        1 UNL1     -0.0615
     26 C         -3.904845   -10.33911   -2.757206 C.3        1 UNL1     -0.0615
     27 C         -6.087361   -1.058284   -8.755692 C.ar        1 UNL1     0.1347
     28 C         -5.59021   0.219702   -8.572275 C.ar        1 UNL1     0.0342
     29 C         -4.611001   0.326849   -7.561912 C.ar        1 UNL1     0.1435
     30 C         -4.211304   -0.755948   -6.777685 C.ar        1 UNL1     0.0774
     31 O         -4.111774   1.525351   -7.188587 O.3        1 UNL1     -0.4436
     32 C         -3.550654   1.295099   -5.887433 C.3        1 UNL1     0.3143
     33 C         -3.266433   -0.19245   -5.836168 C.2        1 UNL1     0.2504
     34 C         -6.11502   1.471187   -9.219159 C.3        1 UNL1     -0.0327
     35 O         -2.283906   1.963559   -5.845446 O.2        1 UNL1     -0.4528
     36 C         -1.756078   2.966501   -2.222796 C.3        1 UNL1     0.0854
     37 C         -1.731946   2.060984   -0.93168 C.3        1 UNL1     0.0236
     38 C         -0.407323   2.193966   -0.03757 C.3        1 UNL1     0.1131
     39 C         1.015036   2.059057   -0.716515 C.3        1 UNL1     0.0200
     40 C         1.304255   0.861537   -1.84112 C.3        1 UNL1     0.0661
     41 C         0.944678   -0.785614   -1.653479 C.3        1 UNL1     0.0091
     42 C         0.453254   -2.045146   -2.893432 C.3        1 UNL1     0.0661
     43 C         -6.387377   -3.459039   -8.112249 C.2        1 UNL1     0.2131
     44 O         -7.45778   -3.612724   -8.672029 O.2        1 UNL1     -0.2851
     45 O         -6.993651   -1.293286   -9.787609 O.3        1 UNL1     -0.5056
     46 O         -2.43275   -0.778221   -5.182181 O.2        1 UNL1     -0.2836
     47 C         1.730573   -2.50706   -5.189713 C.3        1 UNL1     -0.0566
     48 O         1.417871   -3.06255   -2.410194 O.3        1 UNL1     -0.3909
     49 C         0.022186   -0.951588   -0.466485 C.3        1 UNL1     -0.0577
     50 O         0.937681   1.291576   -3.136656 O.3        1 UNL1     -0.3910
     51 O         -0.555581   3.641137   -2.524628 O.3        1 UNL1     -0.3753
     52 C         -2.43844   0.686828   -1.171494 C.3        1 UNL1     -0.0564
     53 O         -0.54951   1.609126   1.337228 O.3        1 UNL1     -0.4608
     54 C         0.428787   0.933998   2.019185 C.2        1 UNL1     0.3042
     55 O         0.319811   -0.135617   2.617423 O.2        1 UNL1     -0.2512
     56 C         1.776593   1.593492   1.947075 C.3        1 UNL1     0.0332
     57 C         1.532209   3.535353   -1.050068 C.3        1 UNL1     -0.0567
     58 C         -4.663904   1.625777   -4.86623 C.3        1 UNL1     0.0210
     59 C         -0.622315   5.062083   -2.413609 C.3        1 UNL1     0.0372
     60 C         -2.184194   2.273946   -3.468687 C.2        1 UNL1     -0.0208
     61 C         -1.668914   2.309722   -4.6983 C.2        1 UNL1     0.0882
     62 H         -0.280308   -1.826967   -4.910164 H        1 UNL1     0.0365
     63 H         -1.300508   -2.904819   -6.312896 H        1 UNL1     0.0576
     64 H         -0.596841   -5.900274   -6.142965 H        1 UNL1     0.0615
     65 H         -2.639659   -4.290336   -7.872952 H        1 UNL1     0.0622
     66 H         -2.528589   3.720662   -2.016605 H        1 UNL1     0.0645
     67 H         -2.489613   2.516457   -0.270587 H        1 UNL1     0.0362
     68 H         -0.490381   3.250916   0.258199 H        1 UNL1     0.0741
     69 H         1.747929   1.846235   0.050284 H        1 UNL1     0.0359
     70 H         2.411008   0.870978   -1.849376 H        1 UNL1     0.0600
     71 H         1.904485   -1.146478   -1.234545 H        1 UNL1     0.0348
     72 H         0.920093   -1.226985   -3.460873 H        1 UNL1     0.0602
     73 H         -3.109812   1.783627   -3.295286 H        1 UNL1     0.0628
     74 H         -0.698718   2.740521   -4.948043 H        1 UNL1     0.1022
     75 H         -4.399816   -8.089854   -8.282301 H        1 UNL1     0.0279
     76 H         -2.937982   -8.291061   -9.163128 H        1 UNL1     0.0279
     77 H         -2.985247   -8.375879   -7.355956 H        1 UNL1     0.0279
     78 H         -5.510551   -6.50752   -7.260723 H        1 UNL1     0.1553
     79 H         -4.469657   -6.236252   -5.596639 H        1 UNL1     0.1484
     80 H         -4.593871   -4.050936   -2.490441 H        1 UNL1     0.0317
     81 H         -5.811596   -3.974177   -3.755819 H        1 UNL1     0.0317
     82 H         -5.769812   -6.467766   -4.027802 H        1 UNL1     0.0428
     83 H         -6.147434   -5.971936   -2.392792 H        1 UNL1     0.0428
     84 H         -2.13963   -7.19277   -3.134553 H        1 UNL1     0.0428
     85 H         -3.227751   -7.272393   -4.475737 H        1 UNL1     0.0428
     86 H         -1.719118   -5.288597   -4.359847 H        1 UNL1     0.0317
     87 H         -2.35128   -4.770724   -2.865013 H        1 UNL1     0.0317
     88 H         -4.674017   -7.874583   -1.005565 H        1 UNL1     0.0429
     89 H         -5.452032   -8.39449   -2.502436 H        1 UNL1     0.0429
     90 H         -2.716953   -8.639268   -3.101114 H        1 UNL1     0.0308
     91 H         -1.72958   -9.902224   -1.146604 H        1 UNL1     0.0233
     92 H         -2.047832   -8.194227   -0.750425 H        1 UNL1     0.0233
     93 H         -3.107588   -9.451435   -0.149635 H        1 UNL1     0.0233
     94 H         -4.360799   -10.87497   -1.917685 H        1 UNL1     0.0233
     95 H         -4.675807   -10.184879   -3.517332 H        1 UNL1     0.0233
     96 H         -3.113996   -10.965929   -3.178661 H        1 UNL1     0.0233
     97 H         -5.345347   1.993991   -9.779078 H        1 UNL1     0.0280
     98 H         -6.918201   1.260306   -9.937272 H        1 UNL1     0.0280
     99 H         -6.501805   2.152931   -8.444099 H        1 UNL1     0.0280
     100 H         -7.84282   -1.583631   -9.504354 H        1 UNL1     0.2922
     101 H         1.952035   -1.441026   -5.236422 H        1 UNL1     0.0236
     102 H         1.900664   -3.002358   -6.145083 H        1 UNL1     0.0236
     103 H         2.498732   -2.923249   -4.516725 H        1 UNL1     0.0236
     104 H         2.240891   -2.595928   -2.165504 H        1 UNL1     0.2098
     105 H         -0.999189   -1.219086   -0.725424 H        1 UNL1     0.0234
     106 H         0.399216   -1.611851   0.31443 H        1 UNL1     0.0234
     107 H         0.0   0.0   0.0 H        1 UNL1     0.0234
     108 H         1.762122   1.415505   -3.645288 H        1 UNL1     0.2098
     109 H         -3.496798   0.804983   -1.442842 H        1 UNL1     0.0234
     110 H         -1.9344   0.069006   -1.922483 H        1 UNL1     0.0234
     111 H         -2.431262   0.064688   -0.266598 H        1 UNL1     0.0234
     112 H         2.505774   0.903401   1.511856 H        1 UNL1     0.0342
     113 H         1.745186   2.529866   1.392043 H        1 UNL1     0.0342
     114 H         2.100866   1.824278   2.97116 H        1 UNL1     0.0342
     115 H         2.526517   3.523904   -1.517409 H        1 UNL1     0.0234
     116 H         0.86754   4.100946   -1.706093 H        1 UNL1     0.0234
     117 H         1.725834   4.147011   -0.152112 H        1 UNL1     0.0234
     118 H         -4.417351   2.512836   -4.256849 H        1 UNL1     0.0309
     119 H         -5.643961   1.771925   -5.331345 H        1 UNL1     0.0309
     120 H         -4.797497   0.835514   -4.119408 H        1 UNL1     0.0309
     121 H         -0.966367   5.451805   -3.371263 H        1 UNL1     0.0524
     122 H         -1.342132   5.38829   -1.644525 H        1 UNL1     0.0524
     123 H         0.35698   5.46678   -2.174243 H        1 UNL1     0.0524
@<TRIPOS>BOND
     1     1     2    1
     2     1    42    1
     3     2     3    2
     4     3     4    1
     5     4     5    2
     6     5     7    1
     7     6    75    1
     8     6    76    1
     9     6    77    1
    10     7     9   am
    11     9    10    1
    12    10    11    2
    13    10    43    1
    14    11    14    1
    15    11    15    1
    16    12    13   ar
    17    12    27   ar
    18    12    43    1
    19    13    14    1
    20    13    30   ar
    21    14    17    2
    22    15    16    1
    23    16    17    1
    24    16    18    1
    25    16    22    1
    26    18    19    1
    27    19    20    1
    28    20    21    1
    29    21    22    1
    30    23    24    1
    31    23    88    1
    32    23    89    1
    33    24    25    1
    34    24    26    1
    35    24    90    1
    36    25    91    1
    37    25    92    1
    38    25    93    1
    39    26    94    1
    40    26    95    1
    41    26    96    1
    42    27    28   ar
    43    28    29   ar
    44    29    30   ar
    45    29    31    1
    46    30    33    1
    47    31    32    1
    48    32    33    1
    49    32    35    1
    50    34    97    1
    51    34    98    1
    52    34    99    1
    53    35    61    1
    54    36    37    1
    55    36    60    1
    56    37    38    1
    57    38    39    1
    58    39    40    1
    59    40    41    1
    60    41    42    1
    61    45   100    1
    62    47   101    1
    63    47   102    1
    64    47   103    1
    65    48   104    1
    66    49   105    1
    67    49   106    1
    68    49   107    1
    69    50   108    1
    70    51    59    1
    71    52   109    1
    72    52   110    1
    73    52   111    1
    74    53    54    1
    75    54    55    2
    76    54    56    1
    77    56   112    1
    78    56   113    1
    79    56   114    1
    80    57   115    1
    81    57   116    1
    82    57   117    1
    83    58   118    1
    84    58   119    1
    85    58   120    1
    86    59   121    1
    87    59   122    1
    88    59   123    1
    89    60    61    2
    90     1    47    1
    91     1    62    1
    92     2    63    1
    93     3    64    1
    94     4    65    1
    95     5     6    1
    96     7     8    2
    97     9    78    1
    98    15    79    1
    99    18    80    1
   100    18    81    1
   101    19    82    1
   102    19    83    1
   103    20    23    1
   104    21    84    1
   105    21    85    1
   106    22    86    1
   107    22    87    1
   108    27    45    1
   109    28    34    1
   110    32    58    1
   111    33    46    2
   112    36    51    1
   113    36    66    1
   114    37    52    1
   115    37    67    1
   116    38    53    1
   117    38    68    1
   118    42    48    1
   119    42    72    1
   120    43    44    2
   121    60    73    1
   122    61    74    1
   123    39    69    1
   124    39    57    1
   125    40    70    1
   126    40    50    1
   127    41    71    1
   128    41    49    1
