@<TRIPOS>MOLECULE
*****
 123 128 0 0 0
SMALL
GASTEIGER

@<TRIPOS>ATOM
     1 C         5.16632   1.760592   0.456859 C.3        1 UNL1     0.0009
     2 C         6.595666   2.569426   -0.403254 C.2        1 UNL1     -0.0787
     3 C         7.873424   2.473725   -1.077215 C.2        1 UNL1     -0.0649
     4 C         8.743198   3.710378   -1.839146 C.2        1 UNL1     -0.0542
     5 C         9.756469   4.004769   -2.7845 C.2        1 UNL1     0.0115
     6 C         10.880433   3.381357   -3.657073 C.3        1 UNL1     -0.0348
     7 C         9.844563   5.487893   -3.392425 C.2        1 UNL1     0.2441
     8 O         10.669037   6.311589   -3.020546 O.2        1 UNL1     -0.2702
     9 N         9.086316   5.692526   -4.558332 N.am        1 UNL1     -0.2772
     10 C         7.804799   6.076521   -4.236488 C.2        1 UNL1     0.1049
     11 C         6.963094   5.103388   -3.938549 C.2        1 UNL1     0.0801
     12 C         6.511982   7.681067   -2.818253 C.ar        1 UNL1     0.0753
     13 C         5.75836   6.551713   -2.365237 C.ar        1 UNL1     0.0305
     14 C         5.874027   5.245912   -3.01065 C.2        1 UNL1     0.0924
     15 N         7.087651   3.774597   -4.097699 N.pl3        1 UNL1     -0.3170
     16 C         5.821194   3.172773   -3.774976 C.3        1 UNL1     0.1275
     17 N         5.18902   4.127138   -2.791479 N.2        1 UNL1     -0.2557
     18 C         4.960052   3.229228   -5.033128 C.3        1 UNL1     0.0016
     19 C         5.709135   2.546185   -6.166228 C.3        1 UNL1     0.0026
     20 N         5.984849   1.168908   -5.78137 N.3        1 UNL1     -0.3018
     21 C         6.756572   1.010916   -4.546926 C.3        1 UNL1     0.0026
     22 C         5.98356   1.700329   -3.421289 C.3        1 UNL1     0.0016
     23 C         6.423991   0.349738   -6.893466 C.3        1 UNL1     0.0012
     24 C         5.262771   0.097131   -7.867896 C.3        1 UNL1     -0.0339
     25 C         5.61001   0.566476   -9.290287 C.3        1 UNL1     -0.0615
     26 C         4.872098   -1.370366   -7.843243 C.3        1 UNL1     -0.0615
     27 C         6.307988   8.948605   -2.278021 C.ar        1 UNL1     0.1347
     28 C         5.354567   9.216556   -1.311977 C.ar        1 UNL1     0.0342
     29 C         4.658539   8.080804   -0.846384 C.ar        1 UNL1     0.1435
     30 C         4.877568   6.798984   -1.35253 C.ar        1 UNL1     0.0774
     31 O         3.622846   8.192531   0.01377 O.3        1 UNL1     -0.4436
     32 C         2.903019   6.958024   -0.12303 C.3        1 UNL1     0.3143
     33 C         3.915064   5.96688   -0.661186 C.2        1 UNL1     0.2504
     34 C         4.907542   10.581909   -0.86917 C.3        1 UNL1     -0.0327
     35 O         2.551896   6.521269   1.195761 O.2        1 UNL1     -0.4528
     36 C         -0.689328   4.581628   0.821129 C.3        1 UNL1     0.0854
     37 C         -0.997626   3.319855   -0.073524 C.3        1 UNL1     0.0236
     38 C         -1.590243   2.057924   0.718992 C.3        1 UNL1     0.1131
     39 C         -0.854879   1.529353   2.015959 C.3        1 UNL1     0.0200
     40 C         0.806866   1.387537   2.046436 C.3        1 UNL1     0.0661
     41 C         1.760353   0.620181   0.871856 C.3        1 UNL1     0.0091
     42 C         3.463433   0.986222   0.296588 C.3        1 UNL1     0.0661
     43 C         7.455198   7.474842   -3.945229 C.2        1 UNL1     0.2131
     44 O         7.848406   8.373397   -4.66684 O.2        1 UNL1     -0.2851
     45 O         7.114951   9.985258   -2.742348 O.3        1 UNL1     -0.5056
     46 O         3.934589   4.76346   -0.529841 O.2        1 UNL1     -0.2836
     47 C         5.572959   1.332828   1.892702 C.3        1 UNL1     -0.0566
     48 O         3.915668   -0.423832   0.376255 O.3        1 UNL1     -0.3909
     49 C         0.918663   0.385017   -0.362547 C.3        1 UNL1     -0.0577
     50 O         1.406878   2.606961   2.434655 O.3        1 UNL1     -0.3910
     51 O         -0.803966   4.392481   2.213434 O.3        1 UNL1     -0.3753
     52 C         0.039687   3.161047   -1.232709 C.3        1 UNL1     -0.0564
     53 O         -2.196348   1.01708   -0.176332 O.3        1 UNL1     -0.4608
     54 C         -2.394483   -0.29807   0.153898 C.2        1 UNL1     0.3042
     55 O         -1.720295   -1.265838   -0.196438 O.2        1 UNL1     -0.2512
     56 C         -3.544756   -0.515001   1.095454 C.3        1 UNL1     0.0332
     57 C         -1.569202   2.197469   3.281478 C.3        1 UNL1     -0.0567
     58 C         1.820269   7.20009   -1.200335 C.3        1 UNL1     0.0210
     59 C         -1.114986   5.571214   2.954865 C.3        1 UNL1     0.0372
     60 C         0.636736   5.213538   0.581538 C.2        1 UNL1     -0.0208
     61 C         1.55432   5.651309   1.444754 C.2        1 UNL1     0.0882
     62 H         4.688781   2.743753   0.546656 H        1 UNL1     0.0365
     63 H         6.327757   3.622691   -0.296821 H        1 UNL1     0.0576
     64 H         8.33179   1.507768   -1.30068 H        1 UNL1     0.0615
     65 H         8.256335   4.624889   -1.489693 H        1 UNL1     0.0622
     66 H         -1.43764   5.326315   0.515322 H        1 UNL1     0.0645
     67 H         -1.867812   3.626935   -0.679361 H        1 UNL1     0.0362
     68 H         -2.535982   2.492895   1.076622 H        1 UNL1     0.0741
     69 H         -1.18287   0.517634   2.214084 H        1 UNL1     0.0359
     70 H         0.925832   0.727972   2.927277 H        1 UNL1     0.0600
     71 H         1.808984   -0.400636   1.299088 H        1 UNL1     0.0348
     72 H         3.362825   1.474763   1.27665 H        1 UNL1     0.0602
     73 H         0.74746   5.410443   -0.455871 H        1 UNL1     0.0628
     74 H         1.54419   5.441232   2.514802 H        1 UNL1     0.1022
     75 H         10.87679   2.268491   -3.564603 H        1 UNL1     0.0279
     76 H         10.797669   3.527399   -4.731732 H        1 UNL1     0.0279
     77 H         11.888252   3.626034   -3.290831 H        1 UNL1     0.0279
     78 H         9.022849   4.822134   -5.082228 H        1 UNL1     0.1553
     79 H         7.749851   3.347727   -4.719153 H        1 UNL1     0.1484
     80 H         4.001148   2.73627   -4.832473 H        1 UNL1     0.0317
     81 H         4.729377   4.265315   -5.303247 H        1 UNL1     0.0317
     82 H         6.636981   3.079412   -6.420558 H        1 UNL1     0.0428
     83 H         5.078084   2.599413   -7.053917 H        1 UNL1     0.0428
     84 H         6.881222   -0.031584   -4.237947 H        1 UNL1     0.0428
     85 H         7.785145   1.38118   -4.657644 H        1 UNL1     0.0428
     86 H         6.506427   1.45165   -2.516437 H        1 UNL1     0.0317
     87 H         5.006016   1.220587   -3.289566 H        1 UNL1     0.0317
     88 H         7.215403   0.892995   -7.426227 H        1 UNL1     0.0429
     89 H         6.860963   -0.594863   -6.544814 H        1 UNL1     0.0429
     90 H         4.379253   0.648103   -7.524329 H        1 UNL1     0.0308
     91 H         6.609228   0.233203   -9.586253 H        1 UNL1     0.0233
     92 H         4.878905   0.191169   -10.010175 H        1 UNL1     0.0233
     93 H         5.59835   1.659139   -9.384024 H        1 UNL1     0.0233
     94 H         4.26213   -1.613617   -8.719944 H        1 UNL1     0.0233
     95 H         5.768473   -1.996181   -7.87206 H        1 UNL1     0.0233
     96 H         4.299038   -1.61571   -6.944701 H        1 UNL1     0.0233
     97 H         4.064199   10.53313   -0.186804 H        1 UNL1     0.0280
     98 H         5.697973   11.122122   -0.331914 H        1 UNL1     0.0280
     99 H         4.606823   11.174937   -1.748365 H        1 UNL1     0.0280
     100 H         6.647842   10.76277   -2.993161 H        1 UNL1     0.2922
     101 H         4.69138   1.001875   2.441286 H        1 UNL1     0.0236
     102 H         6.123333   2.104348   2.43013 H        1 UNL1     0.0236
     103 H         6.245196   0.458596   1.889624 H        1 UNL1     0.0236
     104 H         4.253314   -0.574635   1.280813 H        1 UNL1     0.2098
     105 H         0.700291   1.283032   -0.934993 H        1 UNL1     0.0234
     106 H         1.28554   -0.40257   -1.020602 H        1 UNL1     0.0234
     107 H         0.0   -0.0   0.0 H        1 UNL1     0.0234
     108 H         1.256197   3.247185   1.712729 H        1 UNL1     0.2098
     109 H         1.06864   3.062476   -0.859543 H        1 UNL1     0.0234
     110 H         -0.188589   2.325434   -1.903069 H        1 UNL1     0.0234
     111 H         0.045844   4.038264   -1.893313 H        1 UNL1     0.0234
     112 H         -3.634751   -1.57909   1.334118 H        1 UNL1     0.0342
     113 H         -3.4507   0.081995   2.001319 H        1 UNL1     0.0342
     114 H         -4.467814   -0.204733   0.586668 H        1 UNL1     0.0342
     115 H         -2.657245   2.045705   3.263614 H        1 UNL1     0.0234
     116 H         -1.202401   1.831828   4.242631 H        1 UNL1     0.0234
     117 H         -1.507854   3.29933   3.290378 H        1 UNL1     0.0234
     118 H         0.918958   7.680997   -0.78156 H        1 UNL1     0.0309
     119 H         2.181537   7.792283   -2.047091 H        1 UNL1     0.0309
     120 H         1.434324   6.267136   -1.625481 H        1 UNL1     0.0309
     121 H         -0.735598   5.433734   3.967051 H        1 UNL1     0.0524
     122 H         -0.62892   6.468614   2.537191 H        1 UNL1     0.0524
     123 H         -2.189498   5.729605   2.975606 H        1 UNL1     0.0524
@<TRIPOS>BOND
     1     1     2    1
     2     1    42    1
     3     2     3    2
     4     3     4    1
     5     4     5    2
     6     5     7    1
     7     6    75    1
     8     6    76    1
     9     6    77    1
    10     7     9   am
    11     9    10    1
    12    10    11    2
    13    10    43    1
    14    11    14    1
    15    11    15    1
    16    12    13   ar
    17    12    27   ar
    18    12    43    1
    19    13    14    1
    20    13    30   ar
    21    14    17    2
    22    15    16    1
    23    16    17    1
    24    16    18    1
    25    16    22    1
    26    18    19    1
    27    19    20    1
    28    20    21    1
    29    21    22    1
    30    23    24    1
    31    23    88    1
    32    23    89    1
    33    24    25    1
    34    24    26    1
    35    24    90    1
    36    25    91    1
    37    25    92    1
    38    25    93    1
    39    26    94    1
    40    26    95    1
    41    26    96    1
    42    27    28   ar
    43    28    29   ar
    44    29    30   ar
    45    29    31    1
    46    30    33    1
    47    31    32    1
    48    32    33    1
    49    32    35    1
    50    34    97    1
    51    34    98    1
    52    34    99    1
    53    35    61    1
    54    36    37    1
    55    36    60    1
    56    37    38    1
    57    38    39    1
    58    39    40    1
    59    40    41    1
    60    41    42    1
    61    45   100    1
    62    47   101    1
    63    47   102    1
    64    47   103    1
    65    48   104    1
    66    49   105    1
    67    49   106    1
    68    49   107    1
    69    50   108    1
    70    51    59    1
    71    52   109    1
    72    52   110    1
    73    52   111    1
    74    53    54    1
    75    54    55    2
    76    54    56    1
    77    56   112    1
    78    56   113    1
    79    56   114    1
    80    57   115    1
    81    57   116    1
    82    57   117    1
    83    58   118    1
    84    58   119    1
    85    58   120    1
    86    59   121    1
    87    59   122    1
    88    59   123    1
    89    60    61    2
    90     1    47    1
    91     1    62    1
    92     2    63    1
    93     3    64    1
    94     4    65    1
    95     5     6    1
    96     7     8    2
    97     9    78    1
    98    15    79    1
    99    18    80    1
   100    18    81    1
   101    19    82    1
   102    19    83    1
   103    20    23    1
   104    21    84    1
   105    21    85    1
   106    22    86    1
   107    22    87    1
   108    27    45    1
   109    28    34    1
   110    32    58    1
   111    33    46    2
   112    36    51    1
   113    36    66    1
   114    37    52    1
   115    37    67    1
   116    38    53    1
   117    38    68    1
   118    42    48    1
   119    42    72    1
   120    43    44    2
   121    60    73    1
   122    61    74    1
   123    39    69    1
   124    39    57    1
   125    40    70    1
   126    40    50    1
   127    41    71    1
   128    41    49    1
