@<TRIPOS>MOLECULE
*****
 123 128 0 0 0
SMALL
GASTEIGER

@<TRIPOS>ATOM
     1 C         -0.115229   -3.728971   1.761483 C.3        1 UNL1     0.0009
     2 C         1.303245   -4.69692   2.460083 C.2        1 UNL1     -0.0787
     3 C         2.324366   -5.712619   2.312724 C.2        1 UNL1     -0.0649
     4 C         3.552893   -6.119157   3.404423 C.2        1 UNL1     -0.0542
     5 C         4.814802   -6.746091   3.551451 C.2        1 UNL1     0.0115
     6 C         5.867092   -7.635816   2.834235 C.3        1 UNL1     -0.0348
     7 C         5.694166   -6.42572   4.855702 C.2        1 UNL1     0.2441
     8 O         5.778575   -7.191545   5.80592 O.2        1 UNL1     -0.2702
     9 N         6.565843   -5.330745   4.723949 N.am        1 UNL1     -0.2772
     10 C         5.925331   -4.16284   5.069006 C.2        1 UNL1     0.1049
     11 C         5.186483   -3.604177   4.127613 C.2        1 UNL1     0.0801
     12 C         4.503768   -3.131822   6.850437 C.ar        1 UNL1     0.0753
     13 C         3.619757   -2.725975   5.800475 C.ar        1 UNL1     0.0305
     14 C         4.000932   -2.835541   4.394149 C.2        1 UNL1     0.0924
     15 N         5.116138   -3.871567   2.812287 N.pl3        1 UNL1     -0.3170
     16 C         4.288183   -2.864885   2.202913 C.3        1 UNL1     0.1275
     17 N         3.357699   -2.422541   3.305751 N.2        1 UNL1     -0.2557
     18 C         5.182921   -1.667325   1.89796 C.3        1 UNL1     0.0016
     19 C         6.342621   -2.134496   1.032837 C.3        1 UNL1     0.0026
     20 N         5.808698   -2.714884   -0.191542 N.3        1 UNL1     -0.3018
     21 C         4.887052   -3.836194   0.002372 C.3        1 UNL1     0.0026
     22 C         3.727704   -3.34329   0.870044 C.3        1 UNL1     0.0016
     23 C         6.821585   -2.916616   -1.208403 C.3        1 UNL1     0.0012
     24 C         8.110006   -2.163216   -0.842185 C.3        1 UNL1     -0.0339
     25 C         8.918137   -1.788884   -2.095524 C.3        1 UNL1     -0.0615
     26 C         7.77806   -0.940113   -0.005159 C.3        1 UNL1     -0.0615
     27 C         4.183723   -2.91315   8.188298 C.ar        1 UNL1     0.1347
     28 C         3.031415   -2.265094   8.59605 C.ar        1 UNL1     0.0342
     29 C         2.153277   -1.918239   7.54737 C.ar        1 UNL1     0.1435
     30 C         2.443904   -2.163439   6.204748 C.ar        1 UNL1     0.0774
     31 O         1.041809   -1.18413   7.7726 O.3        1 UNL1     -0.4436
     32 C         0.694138   -0.648655   6.486806 C.3        1 UNL1     0.3143
     33 C         1.329095   -1.588109   5.481585 C.2        1 UNL1     0.2504
     34 C         2.741383   -1.773629   9.986892 C.3        1 UNL1     -0.0327
     35 O         -0.725357   -0.778904   6.340793 O.2        1 UNL1     -0.4528
     36 C         -1.81102   2.098554   4.11601 C.3        1 UNL1     0.0854
     37 C         -1.328725   2.469831   2.660995 C.3        1 UNL1     0.0236
     38 C         -2.50021   2.602295   1.57388 C.3        1 UNL1     0.1131
     39 C         -3.563549   1.441294   1.420076 C.3        1 UNL1     0.0200
     40 C         -3.078176   -0.154591   1.4216 C.3        1 UNL1     0.0661
     41 C         -1.829914   -0.814437   0.481357 C.3        1 UNL1     0.0091
     42 C         -0.671904   -2.191749   0.838324 C.3        1 UNL1     0.0661
     43 C         5.813658   -3.712745   6.464463 C.2        1 UNL1     0.2131
     44 O         6.784   -3.732729   7.199836 O.2        1 UNL1     -0.2851
     45 O         5.07756   -3.379656   9.149997 O.3        1 UNL1     -0.5056
     46 O         0.980106   -1.825114   4.346733 O.2        1 UNL1     -0.2836
     47 C         -1.394532   -4.60696   1.711466 C.3        1 UNL1     -0.0566
     48 O         -0.872313   -2.851677   -0.474477 O.3        1 UNL1     -0.3909
     49 C         -1.007476   0.314247   -0.0993 C.3        1 UNL1     -0.0577
     50 O         -3.005094   -0.654929   2.741465 O.3        1 UNL1     -0.3910
     51 O         -3.173423   1.760287   4.245873 O.3        1 UNL1     -0.3753
     52 C         0.050823   1.816986   2.321011 C.3        1 UNL1     -0.0564
     53 O         -2.071347   3.287246   0.309268 O.3        1 UNL1     -0.4608
     54 C         -2.364998   2.866936   -0.961574 C.2        1 UNL1     0.3042
     55 O         -2.44358   1.707322   -1.365255 O.2        1 UNL1     -0.2512
     56 C         -2.669846   3.99034   -1.911177 C.3        1 UNL1     0.0332
     57 C         -4.837359   1.833726   2.304146 C.3        1 UNL1     -0.0567
     58 C         1.385433   0.731018   6.386091 C.3        1 UNL1     0.0210
     59 C         -3.41989   0.452369   4.760139 C.3        1 UNL1     0.0372
     60 C         -1.034732   1.015227   4.778536 C.2        1 UNL1     -0.0208
     61 C         -1.449627   -0.043328   5.475722 C.2        1 UNL1     0.0882
     62 H         -0.162808   -3.159649   2.697602 H        1 UNL1     0.0365
     63 H         1.322157   -4.31966   3.484674 H        1 UNL1     0.0576
     64 H         2.492729   -6.221176   1.360815 H        1 UNL1     0.0615
     65 H         3.248676   -5.629246   4.333359 H        1 UNL1     0.0622
     66 H         -1.627047   3.006282   4.707812 H        1 UNL1     0.0645
     67 H         -0.991837   3.517332   2.749358 H        1 UNL1     0.0362
     68 H         -3.05459   3.450689   2.003315 H        1 UNL1     0.0741
     69 H         -4.05025   1.540189   0.458957 H        1 UNL1     0.0359
     70 H         -3.982639   -0.629391   0.995488 H        1 UNL1     0.0600
     71 H         -2.407736   -1.140533   -0.405627 H        1 UNL1     0.0348
     72 H         -1.516616   -2.318541   1.530928 H        1 UNL1     0.0602
     73 H         -0.000488   1.25176   4.738052 H        1 UNL1     0.0628
     74 H         -2.483875   -0.386399   5.51898 H        1 UNL1     0.1022
     75 H         5.560018   -7.832653   1.778776 H        1 UNL1     0.0279
     76 H         6.860823   -7.210351   2.713627 H        1 UNL1     0.0279
     77 H         5.909522   -8.656566   3.241631 H        1 UNL1     0.0279
     78 H         6.860838   -5.243206   3.753696 H        1 UNL1     0.1553
     79 H         5.823882   -4.37239   2.307105 H        1 UNL1     0.1484
     80 H         4.58922   -0.89754   1.390303 H        1 UNL1     0.0317
     81 H         5.55905   -1.214624   2.82167 H        1 UNL1     0.0317
     82 H         6.983698   -2.852906   1.564644 H        1 UNL1     0.0428
     83 H         6.968861   -1.265449   0.828803 H        1 UNL1     0.0428
     84 H         4.439193   -4.201629   -0.926978 H        1 UNL1     0.0428
     85 H         5.396382   -4.716894   0.417423 H        1 UNL1     0.0428
     86 H         3.012379   -4.144664   0.879955 H        1 UNL1     0.0317
     87 H         3.194285   -2.533275   0.35776 H        1 UNL1     0.0317
     88 H         7.046541   -3.990028   -1.25817 H        1 UNL1     0.0429
     89 H         6.456522   -2.618232   -2.199599 H        1 UNL1     0.0429
     90 H         8.731275   -2.80305   -0.204337 H        1 UNL1     0.0308
     91 H         8.968343   -2.624088   -2.800518 H        1 UNL1     0.0233
     92 H         8.476796   -0.923541   -2.595533 H        1 UNL1     0.0233
     93 H         9.95202   -1.510439   -1.858058 H        1 UNL1     0.0233
     94 H         8.692239   -0.38519   0.231851 H        1 UNL1     0.0233
     95 H         7.114575   -0.273962   -0.563721 H        1 UNL1     0.0233
     96 H         7.290089   -1.219023   0.932957 H        1 UNL1     0.0233
     97 H         1.850939   -2.234139   10.40435 H        1 UNL1     0.0280
     98 H         3.555534   -2.005525   10.68592 H        1 UNL1     0.0280
     99 H         2.589561   -0.681977   9.96839 H        1 UNL1     0.0280
     100 H         5.181343   -2.814227   9.895075 H        1 UNL1     0.2922
     101 H         -2.012361   -4.308581   0.864759 H        1 UNL1     0.0236
     102 H         -1.953354   -4.603897   2.646716 H        1 UNL1     0.0236
     103 H         -1.161062   -5.668887   1.527089 H        1 UNL1     0.0236
     104 H         -0.440047   -2.296571   -1.152691 H        1 UNL1     0.2098
     105 H         -1.192886   0.509293   -1.152577 H        1 UNL1     0.0234
     106 H         -1.044012   1.243492   0.469115 H        1 UNL1     0.0234
     107 H         0.0   0.0   0.0 H        1 UNL1     0.0234
     108 H         -2.189557   -1.188471   2.804711 H        1 UNL1     0.2098
     109 H         0.784199   1.949821   3.128616 H        1 UNL1     0.0234
     110 H         -0.026739   0.754189   2.067651 H        1 UNL1     0.0234
     111 H         0.504621   2.270663   1.429837 H        1 UNL1     0.0234
     112 H         -2.965335   4.88209   -1.350093 H        1 UNL1     0.0342
     113 H         -1.832708   4.20515   -2.573672 H        1 UNL1     0.0342
     114 H         -3.520964   3.688978   -2.53723 H        1 UNL1     0.0342
     115 H         -5.68985   2.136154   1.680458 H        1 UNL1     0.0234
     116 H         -5.181193   1.036272   2.965882 H        1 UNL1     0.0234
     117 H         -4.686935   2.741165   2.913956 H        1 UNL1     0.0234
     118 H         1.21317   1.210546   5.406609 H        1 UNL1     0.0309
     119 H         1.084677   1.421278   7.180628 H        1 UNL1     0.0309
     120 H         2.477063   0.659425   6.443745 H        1 UNL1     0.0309
     121 H         -4.152534   -0.024905   4.109908 H        1 UNL1     0.0524
     122 H         -2.513774   -0.176105   4.756792 H        1 UNL1     0.0524
     123 H         -3.802831   0.513502   5.774887 H        1 UNL1     0.0524
@<TRIPOS>BOND
     1     1     2    1
     2     1    42    1
     3     2     3    2
     4     3     4    1
     5     4     5    2
     6     5     7    1
     7     6    75    1
     8     6    76    1
     9     6    77    1
    10     7     9   am
    11     9    10    1
    12    10    11    2
    13    10    43    1
    14    11    14    1
    15    11    15    1
    16    12    13   ar
    17    12    27   ar
    18    12    43    1
    19    13    14    1
    20    13    30   ar
    21    14    17    2
    22    15    16    1
    23    16    17    1
    24    16    18    1
    25    16    22    1
    26    18    19    1
    27    19    20    1
    28    20    21    1
    29    21    22    1
    30    23    24    1
    31    23    88    1
    32    23    89    1
    33    24    25    1
    34    24    26    1
    35    24    90    1
    36    25    91    1
    37    25    92    1
    38    25    93    1
    39    26    94    1
    40    26    95    1
    41    26    96    1
    42    27    28   ar
    43    28    29   ar
    44    29    30   ar
    45    29    31    1
    46    30    33    1
    47    31    32    1
    48    32    33    1
    49    32    35    1
    50    34    97    1
    51    34    98    1
    52    34    99    1
    53    35    61    1
    54    36    37    1
    55    36    60    1
    56    37    38    1
    57    38    39    1
    58    39    40    1
    59    40    41    1
    60    41    42    1
    61    45   100    1
    62    47   101    1
    63    47   102    1
    64    47   103    1
    65    48   104    1
    66    49   105    1
    67    49   106    1
    68    49   107    1
    69    50   108    1
    70    51    59    1
    71    52   109    1
    72    52   110    1
    73    52   111    1
    74    53    54    1
    75    54    55    2
    76    54    56    1
    77    56   112    1
    78    56   113    1
    79    56   114    1
    80    57   115    1
    81    57   116    1
    82    57   117    1
    83    58   118    1
    84    58   119    1
    85    58   120    1
    86    59   121    1
    87    59   122    1
    88    59   123    1
    89    60    61    2
    90     1    47    1
    91     1    62    1
    92     2    63    1
    93     3    64    1
    94     4    65    1
    95     5     6    1
    96     7     8    2
    97     9    78    1
    98    15    79    1
    99    18    80    1
   100    18    81    1
   101    19    82    1
   102    19    83    1
   103    20    23    1
   104    21    84    1
   105    21    85    1
   106    22    86    1
   107    22    87    1
   108    27    45    1
   109    28    34    1
   110    32    58    1
   111    33    46    2
   112    36    51    1
   113    36    66    1
   114    37    52    1
   115    37    67    1
   116    38    53    1
   117    38    68    1
   118    42    48    1
   119    42    72    1
   120    43    44    2
   121    60    73    1
   122    61    74    1
   123    39    69    1
   124    39    57    1
   125    40    70    1
   126    40    50    1
   127    41    71    1
   128    41    49    1
