@<TRIPOS>MOLECULE
*****
 123 128 0 0 0
SMALL
GASTEIGER

@<TRIPOS>ATOM
     1 C         2.424453   4.236652   -2.475271 C.3        1 UNL1     0.0009
     2 C         4.043743   5.046884   -2.873341 C.2        1 UNL1     -0.0787
     3 C         5.014394   6.095498   -2.640337 C.2        1 UNL1     -0.0649
     4 C         6.552299   6.261538   -3.32855 C.2        1 UNL1     -0.0542
     5 C         7.825154   6.868808   -3.193868 C.2        1 UNL1     0.0115
     6 C         8.632242   7.932606   -2.399976 C.3        1 UNL1     -0.0348
     7 C         9.063467   6.269022   -4.020808 C.2        1 UNL1     0.2441
     8 O         9.495128   6.786743   -5.04167 O.2        1 UNL1     -0.2702
     9 N         9.783373   5.261511   -3.355369 N.am        1 UNL1     -0.2772
     10 C         9.228151   4.028079   -3.60775 C.2        1 UNL1     0.1049
     11 C         8.193119   3.691607   -2.859607 C.2        1 UNL1     0.0801
     12 C         8.412515   2.562089   -5.463268 C.ar        1 UNL1     0.0753
     13 C         7.213362   2.396022   -4.699683 C.ar        1 UNL1     0.0305
     14 C         7.119678   2.84975   -3.313895 C.2        1 UNL1     0.0924
     15 N         7.711692   4.264487   -1.743111 N.pl3        1 UNL1     -0.3170
     16 C         6.676645   3.411233   -1.22264 C.3        1 UNL1     0.1275
     17 N         6.134779   2.692459   -2.434031 N.2        1 UNL1     -0.2557
     18 C         7.356161   2.346306   -0.367134 C.3        1 UNL1     0.0016
     19 C         8.193304   3.038383   0.696732 C.3        1 UNL1     0.0026
     20 N         7.32118   3.880695   1.50354 N.3        1 UNL1     -0.3018
     21 C         6.575859   4.897512   0.758592 C.3        1 UNL1     0.0026
     22 C         5.738481   4.17986   -0.301441 C.3        1 UNL1     0.0016
     23 C         7.955792   4.347578   2.720065 C.3        1 UNL1     0.0012
     24 C         7.109044   3.973884   3.946901 C.3        1 UNL1     -0.0339
     25 C         7.070581   5.11803   4.973305 C.3        1 UNL1     -0.0615
     26 C         5.712245   3.56663   3.511152 C.3        1 UNL1     -0.0615
     27 C         8.535584   2.020539   -6.740646 C.ar        1 UNL1     0.1347
     28 C         7.546194   1.262751   -7.341408 C.ar        1 UNL1     0.0342
     29 C         6.356211   1.153785   -6.59092 C.ar        1 UNL1     0.1435
     30 C         6.205271   1.721425   -5.325131 C.ar        1 UNL1     0.0774
     31 O         5.341062   0.357339   -6.99111 O.3        1 UNL1     -0.4436
     32 C         4.563919   0.136491   -5.804456 C.3        1 UNL1     0.3143
     33 C         4.885855   1.306312   -4.896661 C.2        1 UNL1     0.2504
     34 C         7.700046   0.444575   -8.593214 C.3        1 UNL1     -0.0327
     35 O         3.183891   0.259545   -6.170011 O.2        1 UNL1     -0.4528
     36 C         1.276289   -2.028988   -3.818041 C.3        1 UNL1     0.0854
     37 C         1.23596   -2.027502   -2.241369 C.3        1 UNL1     0.0236
     38 C         -0.231713   -1.927119   -1.602931 C.3        1 UNL1     0.1131
     39 C         -1.222143   -0.792261   -2.086063 C.3        1 UNL1     0.0200
     40 C         -0.676829   0.769246   -2.302321 C.3        1 UNL1     0.0661
     41 C         0.229827   1.668708   -1.18583 C.3        1 UNL1     0.0091
     42 C         1.514036   2.951067   -1.453716 C.3        1 UNL1     0.0661
     43 C         9.554059   3.253765   -4.814636 C.2        1 UNL1     0.2131
     44 O         10.710933   3.123102   -5.171437 O.2        1 UNL1     -0.2851
     45 O         9.718481   2.266897   -7.434549 O.3        1 UNL1     -0.5056
     46 O         4.198792   1.798916   -4.029978 O.2        1 UNL1     -0.2836
     47 C         1.248742   5.066142   -3.058051 C.3        1 UNL1     -0.0566
     48 O         0.932061   3.900776   -0.474698 O.3        1 UNL1     -0.3909
     49 C         0.754822   0.734757   -0.118304 C.3        1 UNL1     -0.0577
     50 O         -0.14957   0.940409   -3.602484 O.3        1 UNL1     -0.3910
     51 O         0.051554   -1.768645   -4.465865 O.3        1 UNL1     -0.3753
     52 C         2.462166   -1.275169   -1.628699 C.3        1 UNL1     -0.0564
     53 O         -0.277338   -2.277127   -0.144254 O.3        1 UNL1     -0.4608
     54 C         -1.290933   -1.954162   0.719603 C.2        1 UNL1     0.3042
     55 O         -1.537609   -0.849479   1.201957 O.2        1 UNL1     -0.2512
     56 C         -2.203359   -3.105537   1.033497 C.3        1 UNL1     0.0332
     57 C         -2.156705   -1.419431   -3.222472 C.3        1 UNL1     -0.0567
     58 C         5.108266   -1.159623   -5.160015 C.3        1 UNL1     0.0210
     59 C         -1.096803   -1.822141   -3.620714 C.3        1 UNL1     0.0372
     60 C         2.284112   -1.115488   -4.42217 C.2        1 UNL1     -0.0208
     61 C         2.177917   -0.266518   -5.445261 C.2        1 UNL1     0.0882
     62 H         2.65433   3.458466   -3.213034 H        1 UNL1     0.0365
     63 H         4.375705   4.435678   -3.715184 H        1 UNL1     0.0576
     64 H         4.890025   6.82176   -1.833998 H        1 UNL1     0.0615
     65 H         6.541988   5.555207   -4.1631 H        1 UNL1     0.0622
     66 H         1.59379   -3.046797   -4.085069 H        1 UNL1     0.0645
     67 H         1.525717   -3.05615   -1.964813 H        1 UNL1     0.0362
     68 H         -0.66072   -2.868373   -1.979117 H        1 UNL1     0.0741
     69 H         -2.000681   -0.671002   -1.344724 H        1 UNL1     0.0359
     70 H         -1.643615   1.30773   -2.322802 H        1 UNL1     0.0600
     71 H         -0.587357   2.182176   -0.642215 H        1 UNL1     0.0348
     72 H         0.950081   2.885276   -2.395491 H        1 UNL1     0.0602
     73 H         3.233927   -1.307392   -3.988265 H        1 UNL1     0.0628
     74 H         1.234801   0.028112   -5.906741 H        1 UNL1     0.1022
     75 H         9.566705   7.485164   -1.983311 H        1 UNL1     0.0279
     76 H         9.011135   8.778438   -2.969254 H        1 UNL1     0.0279
     77 H         8.119869   8.257805   -1.482686 H        1 UNL1     0.0279
     78 H         9.740072   5.417099   -2.350384 H        1 UNL1     0.1553
     79 H         8.241763   4.890734   -1.165381 H        1 UNL1     0.1484
     80 H         6.588265   1.7049   0.081976 H        1 UNL1     0.0317
     81 H         7.988138   1.695718   -0.981132 H        1 UNL1     0.0317
     82 H         9.010997   3.625423   0.253252 H        1 UNL1     0.0428
     83 H         8.670301   2.260825   1.294166 H        1 UNL1     0.0428
     84 H         5.86961   5.462824   1.374584 H        1 UNL1     0.0428
     85 H         7.239932   5.666477   0.34024 H        1 UNL1     0.0428
     86 H         5.11034   4.935869   -0.73489 H        1 UNL1     0.0317
     87 H         5.023767   3.502149   0.181246 H        1 UNL1     0.0317
     88 H         8.932893   3.854525   2.806475 H        1 UNL1     0.0429
     89 H         8.14316   5.42844   2.682585 H        1 UNL1     0.0429
     90 H         7.543099   3.088722   4.426795 H        1 UNL1     0.0308
     91 H         8.05114   5.272745   5.433382 H        1 UNL1     0.0233
     92 H         6.744462   6.048453   4.502595 H        1 UNL1     0.0233
     93 H         6.363573   4.923791   5.788932 H        1 UNL1     0.0233
     94 H         5.07768   3.396637   4.38766 H        1 UNL1     0.0233
     95 H         5.258875   4.364546   2.916386 H        1 UNL1     0.0233
     96 H         5.731521   2.64973   2.915425 H        1 UNL1     0.0233
     97 H         8.564488   0.749366   -9.175514 H        1 UNL1     0.0280
     98 H         7.845106   -0.621641   -8.375503 H        1 UNL1     0.0280
     99 H         6.801926   0.559498   -9.221916 H        1 UNL1     0.0280
     100 H         9.598795   2.557053   -8.321739 H        1 UNL1     0.2922
     101 H         1.528203   6.118524   -3.103336 H        1 UNL1     0.0236
     102 H         0.311188   4.914556   -2.5242 H        1 UNL1     0.0236
     103 H         1.025231   4.790754   -4.102272 H        1 UNL1     0.0236
     104 H         0.123926   4.277965   -0.874218 H        1 UNL1     0.2098
     105 H         1.67757   0.224278   -0.38242 H        1 UNL1     0.0234
     106 H         0.839169   1.178519   0.873607 H        1 UNL1     0.0234
     107 H         0.0   0.0   0.0 H        1 UNL1     0.0234
     108 H         0.639899   0.369829   -3.67281 H        1 UNL1     0.2098
     109 H         2.238329   -0.220971   -1.413583 H        1 UNL1     0.0234
     110 H         2.856598   -1.757244   -0.727716 H        1 UNL1     0.0234
     111 H         3.315804   -1.262825   -2.319421 H        1 UNL1     0.0234
     112 H         -1.628087   -4.035371   1.076102 H        1 UNL1     0.0342
     113 H         -2.759523   -2.947557   1.956301 H        1 UNL1     0.0342
     114 H         -2.932669   -3.197843   0.216948 H        1 UNL1     0.0342
     115 H         -2.631599   -0.641502   -3.83606 H        1 UNL1     0.0234
     116 H         -1.636479   -2.099746   -3.899661 H        1 UNL1     0.0234
     117 H         -3.040995   -1.945836   -2.823884 H        1 UNL1     0.0234
     118 H         6.203693   -1.127502   -5.025796 H        1 UNL1     0.0309
     119 H         4.636538   -1.393149   -4.200255 H        1 UNL1     0.0309
     120 H         4.957238   -2.039961   -5.794288 H        1 UNL1     0.0309
     121 H         -0.799387   -2.305648   -2.690595 H        1 UNL1     0.0524
     122 H         -1.476305   -0.818448   -3.366519 H        1 UNL1     0.0524
     123 H         -1.890384   -2.388115   -4.100294 H        1 UNL1     0.0524
@<TRIPOS>BOND
     1     1     2    1
     2     1    42    1
     3     2     3    2
     4     3     4    1
     5     4     5    2
     6     5     7    1
     7     6    75    1
     8     6    76    1
     9     6    77    1
    10     7     9   am
    11     9    10    1
    12    10    11    2
    13    10    43    1
    14    11    14    1
    15    11    15    1
    16    12    13   ar
    17    12    27   ar
    18    12    43    1
    19    13    14    1
    20    13    30   ar
    21    14    17    2
    22    15    16    1
    23    16    17    1
    24    16    18    1
    25    16    22    1
    26    18    19    1
    27    19    20    1
    28    20    21    1
    29    21    22    1
    30    23    24    1
    31    23    88    1
    32    23    89    1
    33    24    25    1
    34    24    26    1
    35    24    90    1
    36    25    91    1
    37    25    92    1
    38    25    93    1
    39    26    94    1
    40    26    95    1
    41    26    96    1
    42    27    28   ar
    43    28    29   ar
    44    29    30   ar
    45    29    31    1
    46    30    33    1
    47    31    32    1
    48    32    33    1
    49    32    35    1
    50    34    97    1
    51    34    98    1
    52    34    99    1
    53    35    61    1
    54    36    37    1
    55    36    60    1
    56    37    38    1
    57    38    39    1
    58    39    40    1
    59    40    41    1
    60    41    42    1
    61    45   100    1
    62    47   101    1
    63    47   102    1
    64    47   103    1
    65    48   104    1
    66    49   105    1
    67    49   106    1
    68    49   107    1
    69    50   108    1
    70    51    59    1
    71    52   109    1
    72    52   110    1
    73    52   111    1
    74    53    54    1
    75    54    55    2
    76    54    56    1
    77    56   112    1
    78    56   113    1
    79    56   114    1
    80    57   115    1
    81    57   116    1
    82    57   117    1
    83    58   118    1
    84    58   119    1
    85    58   120    1
    86    59   121    1
    87    59   122    1
    88    59   123    1
    89    60    61    2
    90     1    47    1
    91     1    62    1
    92     2    63    1
    93     3    64    1
    94     4    65    1
    95     5     6    1
    96     7     8    2
    97     9    78    1
    98    15    79    1
    99    18    80    1
   100    18    81    1
   101    19    82    1
   102    19    83    1
   103    20    23    1
   104    21    84    1
   105    21    85    1
   106    22    86    1
   107    22    87    1
   108    27    45    1
   109    28    34    1
   110    32    58    1
   111    33    46    2
   112    36    51    1
   113    36    66    1
   114    37    52    1
   115    37    67    1
   116    38    53    1
   117    38    68    1
   118    42    48    1
   119    42    72    1
   120    43    44    2
   121    60    73    1
   122    61    74    1
   123    39    69    1
   124    39    57    1
   125    40    70    1
   126    40    50    1
   127    41    71    1
   128    41    49    1
