@<TRIPOS>MOLECULE
*****
 123 128 0 0 0
SMALL
GASTEIGER

@<TRIPOS>ATOM
     1 C         3.94041   2.204457   -3.102465 C.3        1 UNL1     0.0009
     2 C         5.423816   1.87201   -4.163607 C.2        1 UNL1     -0.0787
     3 C         6.860373   1.845219   -4.341463 C.2        1 UNL1     -0.0649
     4 C         7.733732   1.263667   -5.670146 C.2        1 UNL1     -0.0542
     5 C         8.99493   0.797696   -6.116609 C.2        1 UNL1     0.0115
     6 C         10.491282   0.652307   -5.72531 C.3        1 UNL1     -0.0348
     7 C         9.074631   -0.036774   -7.485658 C.2        1 UNL1     0.2441
     8 O         9.457102   0.450413   -8.540595 O.2        1 UNL1     -0.2702
     9 N         8.925954   -1.426791   -7.337676 N.am        1 UNL1     -0.2772
     10 C         7.596184   -1.776066   -7.392813 C.2        1 UNL1     0.1049
     11 C         6.914068   -1.649448   -6.269021 C.2        1 UNL1     0.0801
     12 C         5.513458   -1.44848   -8.73902 C.ar        1 UNL1     0.0753
     13 C         4.864484   -1.112896   -7.508238 C.ar        1 UNL1     0.0305
     14 C         5.512941   -1.330821   -6.21709 C.2        1 UNL1     0.0924
     15 N         7.347305   -1.432247   -5.015364 N.pl3        1 UNL1     -0.3170
     16 C         6.216563   -1.548952   -4.133289 C.3        1 UNL1     0.1275
     17 N         5.030505   -1.173467   -4.987691 N.2        1 UNL1     -0.2557
     18 C         6.050154   -3.029559   -3.804938 C.3        1 UNL1     0.0016
     19 C         7.35578   -3.548593   -3.223961 C.3        1 UNL1     0.0026
     20 N         7.674499   -2.7795   -2.028996 N.3        1 UNL1     -0.3018
     21 C         7.793964   -1.334375   -2.23323 C.3        1 UNL1     0.0026
     22 C         6.469957   -0.833485   -2.812893 C.3        1 UNL1     0.0016
     23 C         8.72838   -3.380451   -1.236004 C.3        1 UNL1     0.0012
     24 C         8.204279   -4.620461   -0.494756 C.3        1 UNL1     -0.0339
     25 C         8.880119   -4.783271   0.876663 C.3        1 UNL1     -0.0615
     26 C         6.692342   -4.551175   -0.368157 C.3        1 UNL1     -0.0615
     27 C         4.845111   -1.351433   -9.957221 C.ar        1 UNL1     0.1347
     28 C         3.519585   -0.970532   -10.066513 C.ar        1 UNL1     0.0342
     29 C         2.915682   -0.598038   -8.846795 C.ar        1 UNL1     0.1435
     30 C         3.583785   -0.655575   -7.623051 C.ar        1 UNL1     0.0774
     31 O         1.598134   -0.309096   -8.772058 O.3        1 UNL1     -0.4436
     32 C         1.273869   -0.451975   -7.380903 C.3        1 UNL1     0.3143
     33 C         2.586825   -0.267705   -6.647144 C.2        1 UNL1     0.2504
     34 C         2.668382   -1.084292   -11.300455 C.3        1 UNL1     -0.0327
     35 O         0.436921   0.654599   -7.022763 O.2        1 UNL1     -0.4528
     36 C         -1.82038   -0.604786   -4.243081 C.3        1 UNL1     0.0854
     37 C         -1.429919   -1.230985   -2.849188 C.3        1 UNL1     0.0236
     38 C         -2.073431   -0.499309   -1.575498 C.3        1 UNL1     0.1131
     39 C         -1.944504   1.069918   -1.423264 C.3        1 UNL1     0.0200
     40 C         -0.496809   1.833802   -1.744354 C.3        1 UNL1     0.0661
     41 C         1.020673   1.384387   -1.13371 C.3        1 UNL1     0.0091
     42 C         2.691104   1.518879   -1.880018 C.3        1 UNL1     0.0661
     43 C         6.893706   -1.988843   -8.66702 C.2        1 UNL1     0.2131
     44 O         7.400589   -2.659869   -9.547663 O.2        1 UNL1     -0.2851
     45 O         5.562968   -1.65311   -11.11269 O.3        1 UNL1     -0.5056
     46 O         2.76989   0.130838   -5.518648 O.2        1 UNL1     -0.2836
     47 C         3.701479   3.732913   -2.973182 C.3        1 UNL1     -0.0566
     48 O         3.311094   2.102899   -0.666078 O.3        1 UNL1     -0.3909
     49 C         0.915115   -0.000479   -0.534962 C.3        1 UNL1     -0.0577
     50 O         -0.390661   2.149627   -3.117929 O.3        1 UNL1     -0.3910
     51 O         -2.534275   0.609884   -4.194477 O.3        1 UNL1     -0.3753
     52 C         0.037678   -1.770507   -2.84434 C.3        1 UNL1     -0.0564
     53 O         -1.981629   -1.302914   -0.311331 O.3        1 UNL1     -0.4608
     54 C         -1.755532   -0.792945   0.940364 C.2        1 UNL1     0.3042
     55 O         -0.701359   -0.810077   1.574607 O.2        1 UNL1     -0.2512
     56 C         -2.949376   -0.098765   1.531603 C.3        1 UNL1     0.0332
     57 C         -3.279169   1.723144   -2.014989 C.3        1 UNL1     -0.0567
     58 C         0.796459   -1.910535   -7.190607 C.3        1 UNL1     0.0210
     59 C         -3.911555   0.510456   -4.553755 C.3        1 UNL1     0.0372
     60 C         -0.682698   -0.396834   -5.179883 C.2        1 UNL1     -0.0208
     61 C         -0.376447   0.64863   -5.949271 C.2        1 UNL1     0.0882
     62 H         3.300104   1.855813   -3.921713 H        1 UNL1     0.0365
     63 H         4.943519   1.610819   -5.108892 H        1 UNL1     0.0576
     64 H         7.543335   2.064668   -3.517744 H        1 UNL1     0.0615
     65 H         6.977012   1.154296   -6.451744 H        1 UNL1     0.0622
     66 H         -2.464557   -1.360393   -4.714399 H        1 UNL1     0.0645
     67 H         -1.956378   -2.201127   -2.834205 H        1 UNL1     0.0362
     68 H         -3.139581   -0.686477   -1.775035 H        1 UNL1     0.0741
     69 H         -2.129023   1.335762   -0.390942 H        1 UNL1     0.0359
     70 H         -0.680975   2.806925   -1.250214 H        1 UNL1     0.0600
     71 H         1.056065   2.012797   -0.222225 H        1 UNL1     0.0348
     72 H         2.053817   2.223305   -2.434062 H        1 UNL1     0.0602
     73 H         -0.139503   -1.303952   -5.276445 H        1 UNL1     0.0628
     74 H         -0.84553   1.630023   -5.871377 H        1 UNL1     0.1022
     75 H         10.881485   1.610535   -5.3051 H        1 UNL1     0.0279
     76 H         10.719186   -0.059885   -4.935429 H        1 UNL1     0.0279
     77 H         11.147438   0.514825   -6.597238 H        1 UNL1     0.0279
     78 H         9.280577   -1.713764   -6.427749 H        1 UNL1     0.1553
     79 H         8.290344   -1.598364   -4.715339 H        1 UNL1     0.1484
     80 H         5.221478   -3.147686   -3.096341 H        1 UNL1     0.0317
     81 H         5.781234   -3.600993   -4.69981 H        1 UNL1     0.0317
     82 H         8.175102   -3.499878   -3.956252 H        1 UNL1     0.0428
     83 H         7.215565   -4.606252   -2.998688 H        1 UNL1     0.0428
     84 H         7.954371   -0.772389   -1.307891 H        1 UNL1     0.0428
     85 H         8.663981   -1.079836   -2.854194 H        1 UNL1     0.0428
     86 H         6.545682   0.238023   -2.824042 H        1 UNL1     0.0317
     87 H         5.654897   -1.022944   -2.103753 H        1 UNL1     0.0317
     88 H         9.531434   -3.693279   -1.916105 H        1 UNL1     0.0429
     89 H         9.163715   -2.655422   -0.536297 H        1 UNL1     0.0429
     90 H         8.413934   -5.513374   -1.095559 H        1 UNL1     0.0308
     91 H         8.90837   -3.834734   1.421255 H        1 UNL1     0.0233
     92 H         8.355328   -5.527716   1.479992 H        1 UNL1     0.0233
     93 H         9.916241   -5.132909   0.792765 H        1 UNL1     0.0233
     94 H         6.337045   -5.311349   0.335927 H        1 UNL1     0.0233
     95 H         6.393983   -3.571241   0.014823 H        1 UNL1     0.0233
     96 H         6.20316   -4.717347   -1.332032 H        1 UNL1     0.0233
     97 H         1.788924   -1.699043   -11.133525 H        1 UNL1     0.0280
     98 H         2.293661   -0.108498   -11.636113 H        1 UNL1     0.0280
     99 H         3.25735   -1.53752   -12.114578 H        1 UNL1     0.0280
     100 H         6.399571   -1.226887   -11.176344 H        1 UNL1     0.2922
     101 H         2.859572   4.027687   -3.599247 H        1 UNL1     0.0236
     102 H         4.592242   4.325044   -3.180323 H        1 UNL1     0.0236
     103 H         3.40426   4.020604   -1.950887 H        1 UNL1     0.0236
     104 H         2.642935   2.079664   0.046659 H        1 UNL1     0.2098
     105 H         0.872657   -0.803846   -1.266132 H        1 UNL1     0.0234
     106 H         1.659374   -0.224129   0.229228 H        1 UNL1     0.0234
     107 H         0.0   0.0   0.0 H        1 UNL1     0.0234
     108 H         0.542911   2.377552   -3.291889 H        1 UNL1     0.2098
     109 H         0.192031   -2.562911   -3.589982 H        1 UNL1     0.0234
     110 H         0.786079   -0.983358   -2.985894 H        1 UNL1     0.0234
     111 H         0.301337   -2.217574   -1.87658 H        1 UNL1     0.0234
     112 H         -2.696334   0.301658   2.517999 H        1 UNL1     0.0342
     113 H         -3.332868   0.683954   0.878818 H        1 UNL1     0.0342
     114 H         -3.747496   -0.842075   1.664496 H        1 UNL1     0.0342
     115 H         -3.566266   2.631856   -1.468175 H        1 UNL1     0.0234
     116 H         -3.214571   1.983403   -3.073356 H        1 UNL1     0.0234
     117 H         -4.176269   1.096354   -1.872553 H        1 UNL1     0.0234
     118 H         -0.284858   -1.968066   -6.975084 H        1 UNL1     0.0309
     119 H         1.025653   -2.552787   -8.046869 H        1 UNL1     0.0309
     120 H         1.253622   -2.392182   -6.31933 H        1 UNL1     0.0309
     121 H         -4.227023   1.485659   -4.92364 H        1 UNL1     0.0524
     122 H         -4.081615   -0.221573   -5.360756 H        1 UNL1     0.0524
     123 H         -4.50587   0.227105   -3.689697 H        1 UNL1     0.0524
@<TRIPOS>BOND
     1     1     2    1
     2     1    42    1
     3     2     3    2
     4     3     4    1
     5     4     5    2
     6     5     7    1
     7     6    75    1
     8     6    76    1
     9     6    77    1
    10     7     9   am
    11     9    10    1
    12    10    11    2
    13    10    43    1
    14    11    14    1
    15    11    15    1
    16    12    13   ar
    17    12    27   ar
    18    12    43    1
    19    13    14    1
    20    13    30   ar
    21    14    17    2
    22    15    16    1
    23    16    17    1
    24    16    18    1
    25    16    22    1
    26    18    19    1
    27    19    20    1
    28    20    21    1
    29    21    22    1
    30    23    24    1
    31    23    88    1
    32    23    89    1
    33    24    25    1
    34    24    26    1
    35    24    90    1
    36    25    91    1
    37    25    92    1
    38    25    93    1
    39    26    94    1
    40    26    95    1
    41    26    96    1
    42    27    28   ar
    43    28    29   ar
    44    29    30   ar
    45    29    31    1
    46    30    33    1
    47    31    32    1
    48    32    33    1
    49    32    35    1
    50    34    97    1
    51    34    98    1
    52    34    99    1
    53    35    61    1
    54    36    37    1
    55    36    60    1
    56    37    38    1
    57    38    39    1
    58    39    40    1
    59    40    41    1
    60    41    42    1
    61    45   100    1
    62    47   101    1
    63    47   102    1
    64    47   103    1
    65    48   104    1
    66    49   105    1
    67    49   106    1
    68    49   107    1
    69    50   108    1
    70    51    59    1
    71    52   109    1
    72    52   110    1
    73    52   111    1
    74    53    54    1
    75    54    55    2
    76    54    56    1
    77    56   112    1
    78    56   113    1
    79    56   114    1
    80    57   115    1
    81    57   116    1
    82    57   117    1
    83    58   118    1
    84    58   119    1
    85    58   120    1
    86    59   121    1
    87    59   122    1
    88    59   123    1
    89    60    61    2
    90     1    47    1
    91     1    62    1
    92     2    63    1
    93     3    64    1
    94     4    65    1
    95     5     6    1
    96     7     8    2
    97     9    78    1
    98    15    79    1
    99    18    80    1
   100    18    81    1
   101    19    82    1
   102    19    83    1
   103    20    23    1
   104    21    84    1
   105    21    85    1
   106    22    86    1
   107    22    87    1
   108    27    45    1
   109    28    34    1
   110    32    58    1
   111    33    46    2
   112    36    51    1
   113    36    66    1
   114    37    52    1
   115    37    67    1
   116    38    53    1
   117    38    68    1
   118    42    48    1
   119    42    72    1
   120    43    44    2
   121    60    73    1
   122    61    74    1
   123    39    69    1
   124    39    57    1
   125    40    70    1
   126    40    50    1
   127    41    71    1
   128    41    49    1
