@<TRIPOS>MOLECULE
*****
 123 128 0 0 0
SMALL
GASTEIGER

@<TRIPOS>ATOM
     1 C         1.17206   0.064932   -4.145864 C.3        1 UNL1     0.0009
     2 C         2.875641   -0.11062   -4.855815 C.2        1 UNL1     -0.0787
     3 C         4.033076   0.471134   -5.502307 C.2        1 UNL1     -0.0649
     4 C         5.519666   -0.267315   -5.835626 C.2        1 UNL1     -0.0542
     5 C         6.887143   -0.043258   -6.130388 C.2        1 UNL1     0.0115
     6 C         7.929035   1.045005   -6.509156 C.3        1 UNL1     -0.0348
     7 C         7.932301   -1.244934   -5.928871 C.2        1 UNL1     0.2441
     8 O         8.371647   -1.907643   -6.858558 O.2        1 UNL1     -0.2702
     9 N         8.508178   -1.316147   -4.648463 N.am        1 UNL1     -0.2772
     10 C         7.723719   -2.075097   -3.810644 C.2        1 UNL1     0.1049
     11 C         6.704423   -1.453456   -3.246001 C.2        1 UNL1     0.0801
     12 C         6.521584   -4.263665   -3.661071 C.ar        1 UNL1     0.0753
     13 C         5.372961   -3.515381   -3.249556 C.ar        1 UNL1     0.0305
     14 C         5.466527   -2.099135   -2.902361 C.2        1 UNL1     0.0924
     15 N         6.418705   -0.141488   -3.185736 N.pl3        1 UNL1     -0.3170
     16 C         5.28975   0.02253   -2.308915 C.3        1 UNL1     0.1275
     17 N         4.538398   -1.282277   -2.412211 N.2        1 UNL1     -0.2557
     18 C         5.830023   0.088407   -0.88362 C.3        1 UNL1     0.0016
     19 C         6.855155   1.208344   -0.803388 C.3        1 UNL1     0.0026
     20 N         6.21112   2.45972   -1.177959 N.3        1 UNL1     -0.3018
     21 C         5.605997   2.472726   -2.511386 C.3        1 UNL1     0.0026
     22 C         4.576344   1.342908   -2.56815 C.3        1 UNL1     0.0016
     23 C         7.008742   3.624641   -0.850236 C.3        1 UNL1     0.0012
     24 C         7.01983   3.859945   0.668403 C.3        1 UNL1     -0.0339
     25 C         5.596263   3.850869   1.249291 C.3        1 UNL1     -0.0615
     26 C         7.907532   2.832015   1.3482 C.3        1 UNL1     -0.0615
     27 C         6.449274   -5.638345   -3.873548 C.ar        1 UNL1     0.1347
     28 C         5.297862   -6.377583   -3.669026 C.ar        1 UNL1     0.0342
     29 C         4.167473   -5.612431   -3.311354 C.ar        1 UNL1     0.1435
     30 C         4.216242   -4.229689   -3.130066 C.ar        1 UNL1     0.0774
     31 O         2.998958   -6.198398   -2.970442 O.3        1 UNL1     -0.4436
     32 C         2.286327   -5.188545   -2.240218 C.3        1 UNL1     0.3143
     33 C         2.879852   -3.872874   -2.701684 C.2        1 UNL1     0.2504
     34 C         5.208149   -7.877819   -3.632391 C.3        1 UNL1     -0.0327
     35 O         0.927104   -5.214711   -2.693074 O.2        1 UNL1     -0.4528
     36 C         -1.176996   -4.1066   0.265463 C.3        1 UNL1     0.0854
     37 C         -1.097699   -2.77044   1.099677 C.3        1 UNL1     0.0236
     38 C         -2.47144   -1.94809   1.190887 C.3        1 UNL1     0.1131
     39 C         -3.27618   -1.614857   -0.129575 C.3        1 UNL1     0.0200
     40 C         -2.477953   -1.080673   -1.493364 C.3        1 UNL1     0.0661
     41 C         -1.343544   0.179238   -1.551245 C.3        1 UNL1     0.0091
     42 C         0.125653   0.409279   -2.625463 C.3        1 UNL1     0.0661
     43 C         7.814017   -3.542183   -3.767558 C.2        1 UNL1     0.2131
     44 O         8.898638   -4.093453   -3.718207 O.2        1 UNL1     -0.2851
     45 O         7.601566   -6.284033   -4.317111 O.3        1 UNL1     -0.5056
     46 O         2.35925   -2.780166   -2.730255 O.2        1 UNL1     -0.2836
     47 C         0.123401   0.186518   -5.284069 C.3        1 UNL1     -0.0566
     48 O         -0.201577   1.815054   -2.965807 O.3        1 UNL1     -0.3909
     49 C         -0.915454   0.515662   -0.140199 C.3        1 UNL1     -0.0577
     50 O         -2.027881   -2.172152   -2.270431 O.3        1 UNL1     -0.3910
     51 O         -2.380535   -4.324712   -0.435502 O.3        1 UNL1     -0.3753
     52 C         0.285939   -2.061499   0.932656 C.3        1 UNL1     -0.0564
     53 O         -2.469142   -0.891281   2.256475 O.3        1 UNL1     -0.4608
     54 C         -3.46943   0.019492   2.475208 C.2        1 UNL1     0.3042
     55 O         -4.022186   0.279675   3.543199 O.2        1 UNL1     -0.2512
     56 C         -3.85461   0.795996   1.248264 C.3        1 UNL1     0.0332
     57 C         -4.390712   -2.747129   -0.313832 C.3        1 UNL1     -0.0567
     58 C         2.636739   -5.39803   -0.748622 C.3        1 UNL1     0.0210
     59 C         -2.488781   -3.623376   -1.673353 C.3        1 UNL1     0.0372
     60 C         -0.070254   -4.305843   -0.709515 C.2        1 UNL1     -0.0208
     61 C         -0.099388   -4.714876   -1.978605 C.2        1 UNL1     0.0882
     62 H         1.202749   -0.993495   -3.860379 H        1 UNL1     0.0365
     63 H         3.028537   -1.187097   -4.754383 H        1 UNL1     0.0576
     64 H         4.10175   1.543947   -5.695864 H        1 UNL1     0.0615
     65 H         5.320324   -1.332316   -5.688934 H        1 UNL1     0.0622
     66 H         -1.067846   -4.90533   1.012566 H        1 UNL1     0.0645
     67 H         -0.976817   -3.112151   2.142357 H        1 UNL1     0.0362
     68 H         -3.089091   -2.681167   1.731837 H        1 UNL1     0.0741
     69 H         -3.962426   -0.804244   0.076291 H        1 UNL1     0.0359
     70 H         -3.331469   -0.667853   -2.064457 H        1 UNL1     0.0600
     71 H         -2.012356   1.030975   -1.784038 H        1 UNL1     0.0348
     72 H         -0.510183   -0.329017   -3.135314 H        1 UNL1     0.0602
     73 H         0.85976   -4.189289   -0.210779 H        1 UNL1     0.0628
     74 H         -1.006514   -4.802916   -2.577446 H        1 UNL1     0.1022
     75 H         7.438589   1.881247   -7.063409 H        1 UNL1     0.0279
     76 H         8.411869   1.562688   -5.683356 H        1 UNL1     0.0279
     77 H         8.660974   0.693158   -7.25089 H        1 UNL1     0.0279
     78 H         8.569149   -0.382166   -4.248414 H        1 UNL1     0.1553
     79 H         7.094259   0.583491   -3.343743 H        1 UNL1     0.1484
     80 H         4.995693   0.258864   -0.192531 H        1 UNL1     0.0317
     81 H         6.28731   -0.86381   -0.594097 H        1 UNL1     0.0317
     82 H         7.729024   1.006786   -1.440287 H        1 UNL1     0.0428
     83 H         7.228801   1.236538   0.220645 H        1 UNL1     0.0428
     84 H         5.060734   3.394547   -2.736654 H        1 UNL1     0.0428
     85 H         6.36363   2.410235   -3.304736 H        1 UNL1     0.0428
     86 H         4.062908   1.465811   -3.503707 H        1 UNL1     0.0317
     87 H         3.790209   1.514573   -1.822752 H        1 UNL1     0.0317
     88 H         8.038343   3.438076   -1.182516 H        1 UNL1     0.0429
     89 H         6.654057   4.514408   -1.386229 H        1 UNL1     0.0429
     90 H         7.476079   4.834792   0.877505 H        1 UNL1     0.0308
     91 H         4.84294   3.879667   0.456336 H        1 UNL1     0.0233
     92 H         5.435703   2.962351   1.864405 H        1 UNL1     0.0233
     93 H         5.405526   4.712314   1.900725 H        1 UNL1     0.0233
     94 H         7.296406   2.119644   1.912904 H        1 UNL1     0.0233
     95 H         8.472083   2.271329   0.59795 H        1 UNL1     0.0233
     96 H         8.611341   3.306312   2.037884 H        1 UNL1     0.0233
     97 H         4.210695   -8.220147   -3.373302 H        1 UNL1     0.0280
     98 H         5.437602   -8.330012   -4.60611 H        1 UNL1     0.0280
     99 H         5.91415   -8.271551   -2.882969 H        1 UNL1     0.0280
     100 H         8.382177   -5.759556   -4.282585 H        1 UNL1     0.2922
     101 H         0.222566   -0.656948   -5.966995 H        1 UNL1     0.0236
     102 H         0.165671   1.142153   -5.805566 H        1 UNL1     0.0236
     103 H         -0.909742   0.119114   -4.904247 H        1 UNL1     0.0236
     104 H         -0.800626   1.799866   -3.73774 H        1 UNL1     0.2098
     105 H         -0.731708   1.572984   0.033347 H        1 UNL1     0.0234
     106 H         -1.560258   0.111256   0.639936 H        1 UNL1     0.0234
     107 H         0.0   0.0   0.0 H        1 UNL1     0.0234
     108 H         -1.782858   -1.821686   -3.148444 H        1 UNL1     0.2098
     109 H         0.779561   -1.880093   1.897612 H        1 UNL1     0.0234
     110 H         0.968629   -2.601308   0.26761 H        1 UNL1     0.0234
     111 H         0.180941   -1.07472   0.462348 H        1 UNL1     0.0234
     112 H         -4.58018   1.571691   1.511305 H        1 UNL1     0.0342
     113 H         -2.988591   1.225054   0.746502 H        1 UNL1     0.0342
     114 H         -4.339539   0.106194   0.543863 H        1 UNL1     0.0342
     115 H         -5.39893   -2.318245   -0.395954 H        1 UNL1     0.0234
     116 H         -4.23403   -3.386744   -1.18469 H        1 UNL1     0.0234
     117 H         -4.507219   -3.397689   0.569988 H        1 UNL1     0.0234
     118 H         2.053324   -6.219459   -0.297082 H        1 UNL1     0.0309
     119 H         3.702658   -5.580596   -0.579243 H        1 UNL1     0.0309
     120 H         2.375228   -4.532681   -0.129841 H        1 UNL1     0.0309
     121 H         -1.861042   -4.138361   -2.400051 H        1 UNL1     0.0524
     122 H         -3.519388   -3.623667   -2.065636 H        1 UNL1     0.0524
     123 H         -2.157491   -2.595787   -1.553346 H        1 UNL1     0.0524
@<TRIPOS>BOND
     1     1     2    1
     2     1    42    1
     3     2     3    2
     4     3     4    1
     5     4     5    2
     6     5     7    1
     7     6    75    1
     8     6    76    1
     9     6    77    1
    10     7     9   am
    11     9    10    1
    12    10    11    2
    13    10    43    1
    14    11    14    1
    15    11    15    1
    16    12    13   ar
    17    12    27   ar
    18    12    43    1
    19    13    14    1
    20    13    30   ar
    21    14    17    2
    22    15    16    1
    23    16    17    1
    24    16    18    1
    25    16    22    1
    26    18    19    1
    27    19    20    1
    28    20    21    1
    29    21    22    1
    30    23    24    1
    31    23    88    1
    32    23    89    1
    33    24    25    1
    34    24    26    1
    35    24    90    1
    36    25    91    1
    37    25    92    1
    38    25    93    1
    39    26    94    1
    40    26    95    1
    41    26    96    1
    42    27    28   ar
    43    28    29   ar
    44    29    30   ar
    45    29    31    1
    46    30    33    1
    47    31    32    1
    48    32    33    1
    49    32    35    1
    50    34    97    1
    51    34    98    1
    52    34    99    1
    53    35    61    1
    54    36    37    1
    55    36    60    1
    56    37    38    1
    57    38    39    1
    58    39    40    1
    59    40    41    1
    60    41    42    1
    61    45   100    1
    62    47   101    1
    63    47   102    1
    64    47   103    1
    65    48   104    1
    66    49   105    1
    67    49   106    1
    68    49   107    1
    69    50   108    1
    70    51    59    1
    71    52   109    1
    72    52   110    1
    73    52   111    1
    74    53    54    1
    75    54    55    2
    76    54    56    1
    77    56   112    1
    78    56   113    1
    79    56   114    1
    80    57   115    1
    81    57   116    1
    82    57   117    1
    83    58   118    1
    84    58   119    1
    85    58   120    1
    86    59   121    1
    87    59   122    1
    88    59   123    1
    89    60    61    2
    90     1    47    1
    91     1    62    1
    92     2    63    1
    93     3    64    1
    94     4    65    1
    95     5     6    1
    96     7     8    2
    97     9    78    1
    98    15    79    1
    99    18    80    1
   100    18    81    1
   101    19    82    1
   102    19    83    1
   103    20    23    1
   104    21    84    1
   105    21    85    1
   106    22    86    1
   107    22    87    1
   108    27    45    1
   109    28    34    1
   110    32    58    1
   111    33    46    2
   112    36    51    1
   113    36    66    1
   114    37    52    1
   115    37    67    1
   116    38    53    1
   117    38    68    1
   118    42    48    1
   119    42    72    1
   120    43    44    2
   121    60    73    1
   122    61    74    1
   123    39    69    1
   124    39    57    1
   125    40    70    1
   126    40    50    1
   127    41    71    1
   128    41    49    1
