@<TRIPOS>MOLECULE
*****
 123 128 0 0 0
SMALL
GASTEIGER

@<TRIPOS>ATOM
     1 C         5.080657   1.793043   0.991728 C.3        1 UNL1     0.0009
     2 C         6.887874   1.381373   0.952624 C.2        1 UNL1     -0.0787
     3 C         8.102537   0.992087   1.637531 C.2        1 UNL1     -0.0649
     4 C         9.605637   0.613777   0.956408 C.2        1 UNL1     -0.0542
     5 C         10.844131   -0.041012   1.167269 C.2        1 UNL1     0.0115
     6 C         11.735957   -0.728305   2.237594 C.3        1 UNL1     -0.0348
     7 C         11.756553   -0.404916   -0.102396 C.2        1 UNL1     0.2441
     8 O         12.741655   0.246023   -0.422364 O.2        1 UNL1     -0.2702
     9 N         11.503576   -1.667168   -0.667085 N.am        1 UNL1     -0.2772
     10 C         10.508248   -1.579274   -1.613086 C.2        1 UNL1     0.1049
     11 C         9.268719   -1.60706   -1.158093 C.2        1 UNL1     0.0801
     12 C         9.784854   -0.265432   -3.615049 C.ar        1 UNL1     0.0753
     13 C         8.508768   -0.145891   -2.977928 C.ar        1 UNL1     0.0305
     14 C         8.17122   -0.925158   -1.788871 C.2        1 UNL1     0.0924
     15 N         8.803995   -1.917524   0.06427 N.pl3        1 UNL1     -0.3170
     16 C         7.367743   -1.961644   -0.009823 C.3        1 UNL1     0.1275
     17 N         7.018059   -1.015418   -1.132365 N.2        1 UNL1     -0.2557
     18 C         6.982651   -3.355708   -0.495613 C.3        1 UNL1     0.0016
     19 C         7.59477   -4.383889   0.442333 C.3        1 UNL1     0.0026
     20 N         7.097379   -4.142583   1.789702 N.3        1 UNL1     -0.3018
     21 C         7.365772   -2.804732   2.321199 C.3        1 UNL1     0.0026
     22 C         6.738141   -1.788044   1.366045 C.3        1 UNL1     0.0016
     23 C         7.377938   -5.236066   2.69867 C.3        1 UNL1     0.0012
     24 C         6.183974   -6.201385   2.764752 C.3        1 UNL1     -0.0339
     25 C         6.029545   -6.809576   4.16843 C.3        1 UNL1     -0.0615
     26 C         4.916281   -5.492965   2.31992 C.3        1 UNL1     -0.0615
     27 C         10.056544   0.387836   -4.814859 C.ar        1 UNL1     0.1347
     28 C         9.122357   1.153169   -5.489848 C.ar        1 UNL1     0.0342
     29 C         7.889094   1.296399   -4.819244 C.ar        1 UNL1     0.1435
     30 C         7.614916   0.677351   -3.599069 C.ar        1 UNL1     0.0774
     31 O         6.840114   1.920066   -5.398629 O.3        1 UNL1     -0.4436
     32 C         5.694994   1.46221   -4.663822 C.3        1 UNL1     0.3143
     33 C         6.237088   1.023294   -3.318571 C.2        1 UNL1     0.2504
     34 C         9.257248   1.673375   -6.893875 C.3        1 UNL1     -0.0327
     35 O         4.858745   2.601068   -4.425198 O.2        1 UNL1     -0.4528
     36 C         1.305779   1.272436   -4.286418 C.3        1 UNL1     0.0854
     37 C         0.691586   0.166924   -3.344012 C.3        1 UNL1     0.0236
     38 C         -0.595258   0.631054   -2.507135 C.3        1 UNL1     0.1131
     39 C         -0.544226   1.970341   -1.666912 C.3        1 UNL1     0.0200
     40 C         0.795896   2.338426   -0.744403 C.3        1 UNL1     0.0661
     41 C         1.553643   1.302567   0.364843 C.3        1 UNL1     0.0091
     42 C         3.317215   1.164122   0.850692 C.3        1 UNL1     0.0661
     43 C         10.779849   -1.180012   -3.002034 C.2        1 UNL1     0.2131
     44 O         11.711849   -1.668755   -3.614606 O.2        1 UNL1     -0.2851
     45 O         11.338234   0.25606   -5.345277 O.3        1 UNL1     -0.5056
     46 O         5.666545   0.988315   -2.25128 O.2        1 UNL1     -0.2836
     47 C         4.863055   3.209637   1.588295 C.3        1 UNL1     -0.0566
     48 O         3.032785   1.143931   2.305962 O.3        1 UNL1     -0.3909
     49 C         1.044876   -0.104609   0.144603 C.3        1 UNL1     -0.0577
     50 O         1.767991   3.011414   -1.518897 O.3        1 UNL1     -0.3910
     51 O         0.765774   2.567523   -4.150127 O.3        1 UNL1     -0.3753
     52 C         1.796639   -0.751962   -2.728011 C.3        1 UNL1     -0.0564
     53 O         -1.3609   -0.5088   -1.901453 O.3        1 UNL1     -0.4608
     54 C         -1.968149   -0.495055   -0.673043 C.2        1 UNL1     0.3042
     55 O         -3.161231   -0.66884   -0.427702 O.2        1 UNL1     -0.2512
     56 C         -1.011913   -0.296072   0.46833 C.3        1 UNL1     0.0332
     57 C         -1.167463   3.131961   -2.572664 C.3        1 UNL1     -0.0567
     58 C         5.160658   0.220826   -5.415473 C.3        1 UNL1     0.0210
     59 C         -0.063052   2.988318   -5.232645 C.3        1 UNL1     0.0372
     60 C         2.785335   1.413922   -4.208587 C.2        1 UNL1     -0.0208
     61 C         3.546624   2.506613   -4.136403 C.2        1 UNL1     0.0882
     62 H         5.103914   1.912655   -0.098164 H        1 UNL1     0.0365
     63 H         7.117403   1.571934   -0.097839 H        1 UNL1     0.0576
     64 H         8.10502   0.741504   2.700691 H        1 UNL1     0.0615
     65 H         9.523085   0.972905   -0.073007 H        1 UNL1     0.0622
     66 H         1.090079   0.918333   -5.304323 H        1 UNL1     0.0645
     67 H         0.24754   -0.563905   -4.042061 H        1 UNL1     0.0362
     68 H         -1.290728   0.832961   -3.336036 H        1 UNL1     0.0741
     69 H         -1.339159   1.951475   -0.933335 H        1 UNL1     0.0359
     70 H         0.368735   3.124496   -0.092722 H        1 UNL1     0.0600
     71 H         1.016305   1.585102   1.291341 H        1 UNL1     0.0348
     72 H         3.206157   2.157294   0.391791 H        1 UNL1     0.0602
     73 H         3.234963   0.462134   -4.347084 H        1 UNL1     0.0628
     74 H         3.168147   3.509818   -3.937477 H        1 UNL1     0.1022
     75 H         12.069062   -1.733626   1.883469 H        1 UNL1     0.0279
     76 H         12.678402   -0.238115   2.471221 H        1 UNL1     0.0279
     77 H         11.179467   -0.992804   3.148671 H        1 UNL1     0.0279
     78 H         11.182966   -2.307464   0.056316 H        1 UNL1     0.1553
     79 H         9.329434   -2.434466   0.745164 H        1 UNL1     0.1484
     80 H         5.889192   -3.436502   -0.519808 H        1 UNL1     0.0317
     81 H         7.332089   -3.523498   -1.520011 H        1 UNL1     0.0317
     82 H         8.694048   -4.356117   0.415323 H        1 UNL1     0.0428
     83 H         7.30927   -5.37068   0.076569 H        1 UNL1     0.0428
     84 H         6.9133   -2.623117   3.301044 H        1 UNL1     0.0428
     85 H         8.439071   -2.63892   2.48809 H        1 UNL1     0.0428
     86 H         6.837345   -0.834967   1.851629 H        1 UNL1     0.0317
     87 H         5.652511   -1.937667   1.320053 H        1 UNL1     0.0317
     88 H         8.249172   -5.783477   2.315802 H        1 UNL1     0.0429
     89 H         7.643892   -4.866242   3.697305 H        1 UNL1     0.0429
     90 H         6.33994   -7.01527   2.046784 H        1 UNL1     0.0308
     91 H         6.11257   -6.043482   4.94516 H        1 UNL1     0.0233
     92 H         5.066616   -7.316379   4.266035 H        1 UNL1     0.0233
     93 H         6.795584   -7.564531   4.383051 H        1 UNL1     0.0233
     94 H         4.035742   -6.009799   2.716617 H        1 UNL1     0.0233
     95 H         4.906795   -4.468566   2.702646 H        1 UNL1     0.0233
     96 H         4.837447   -5.463163   1.229569 H        1 UNL1     0.0233
     97 H         8.456393   1.321644   -7.537417 H        1 UNL1     0.0280
     98 H         9.2161   2.769684   -6.934745 H        1 UNL1     0.0280
     99 H         10.216446   1.337993   -7.321138 H        1 UNL1     0.0280
     100 H         12.034032   0.417919   -4.732669 H        1 UNL1     0.2922
     101 H         3.843429   3.539393   1.390102 H        1 UNL1     0.0236
     102 H         5.600994   3.935705   1.248801 H        1 UNL1     0.0236
     103 H         4.94983   3.213823   2.687679 H        1 UNL1     0.0236
     104 H         2.301513   1.770466   2.47229 H        1 UNL1     0.2098
     105 H         1.454493   -0.598021   -0.733219 H        1 UNL1     0.0234
     106 H         1.119858   -0.757268   1.014281 H        1 UNL1     0.0234
     107 H         -0.0   0.0   0.0 H        1 UNL1     0.0234
     108 H         2.202118   2.343466   -2.083828 H        1 UNL1     0.2098
     109 H         2.367928   -1.288987   -3.49804 H        1 UNL1     0.0234
     110 H         2.486205   -0.213362   -2.069109 H        1 UNL1     0.0234
     111 H         1.364123   -1.528497   -2.083132 H        1 UNL1     0.0234
     112 H         -1.48181   0.314428   1.245396 H        1 UNL1     0.0342
     113 H         -0.657665   -1.241904   0.875459 H        1 UNL1     0.0342
     114 H         -0.137614   0.252538   0.091776 H        1 UNL1     0.0342
     115 H         -1.69649   3.881682   -1.968316 H        1 UNL1     0.0234
     116 H         -0.433139   3.661108   -3.183254 H        1 UNL1     0.0234
     117 H         -1.976759   2.784807   -3.237846 H        1 UNL1     0.0234
     118 H         4.191549   0.418564   -5.90612 H        1 UNL1     0.0309
     119 H         5.86502   -0.16823   -6.157573 H        1 UNL1     0.0309
     120 H         4.937276   -0.614188   -4.742452 H        1 UNL1     0.0309
     121 H         -1.09259   2.741338   -4.974946 H        1 UNL1     0.0524
     122 H         -0.01437   4.077508   -5.397969 H        1 UNL1     0.0524
     123 H         0.226693   2.479513   -6.147664 H        1 UNL1     0.0524
@<TRIPOS>BOND
     1     1     2    1
     2     1    42    1
     3     2     3    2
     4     3     4    1
     5     4     5    2
     6     5     7    1
     7     6    75    1
     8     6    76    1
     9     6    77    1
    10     7     9   am
    11     9    10    1
    12    10    11    2
    13    10    43    1
    14    11    14    1
    15    11    15    1
    16    12    13   ar
    17    12    27   ar
    18    12    43    1
    19    13    14    1
    20    13    30   ar
    21    14    17    2
    22    15    16    1
    23    16    17    1
    24    16    18    1
    25    16    22    1
    26    18    19    1
    27    19    20    1
    28    20    21    1
    29    21    22    1
    30    23    24    1
    31    23    88    1
    32    23    89    1
    33    24    25    1
    34    24    26    1
    35    24    90    1
    36    25    91    1
    37    25    92    1
    38    25    93    1
    39    26    94    1
    40    26    95    1
    41    26    96    1
    42    27    28   ar
    43    28    29   ar
    44    29    30   ar
    45    29    31    1
    46    30    33    1
    47    31    32    1
    48    32    33    1
    49    32    35    1
    50    34    97    1
    51    34    98    1
    52    34    99    1
    53    35    61    1
    54    36    37    1
    55    36    60    1
    56    37    38    1
    57    38    39    1
    58    39    40    1
    59    40    41    1
    60    41    42    1
    61    45   100    1
    62    47   101    1
    63    47   102    1
    64    47   103    1
    65    48   104    1
    66    49   105    1
    67    49   106    1
    68    49   107    1
    69    50   108    1
    70    51    59    1
    71    52   109    1
    72    52   110    1
    73    52   111    1
    74    53    54    1
    75    54    55    2
    76    54    56    1
    77    56   112    1
    78    56   113    1
    79    56   114    1
    80    57   115    1
    81    57   116    1
    82    57   117    1
    83    58   118    1
    84    58   119    1
    85    58   120    1
    86    59   121    1
    87    59   122    1
    88    59   123    1
    89    60    61    2
    90     1    47    1
    91     1    62    1
    92     2    63    1
    93     3    64    1
    94     4    65    1
    95     5     6    1
    96     7     8    2
    97     9    78    1
    98    15    79    1
    99    18    80    1
   100    18    81    1
   101    19    82    1
   102    19    83    1
   103    20    23    1
   104    21    84    1
   105    21    85    1
   106    22    86    1
   107    22    87    1
   108    27    45    1
   109    28    34    1
   110    32    58    1
   111    33    46    2
   112    36    51    1
   113    36    66    1
   114    37    52    1
   115    37    67    1
   116    38    53    1
   117    38    68    1
   118    42    48    1
   119    42    72    1
   120    43    44    2
   121    60    73    1
   122    61    74    1
   123    39    69    1
   124    39    57    1
   125    40    70    1
   126    40    50    1
   127    41    71    1
   128    41    49    1
