@<TRIPOS>MOLECULE
*****
 123 128 0 0 0
SMALL
GASTEIGER

@<TRIPOS>ATOM
     1 C         5.18647   1.705208   0.438247 C.3        1 UNL1     0.0009
     2 C         6.622207   2.496136   -0.427854 C.2        1 UNL1     -0.0787
     3 C         7.896994   2.384727   -1.105018 C.2        1 UNL1     -0.0649
     4 C         8.778135   3.609818   -1.872546 C.2        1 UNL1     -0.0542
     5 C         9.791971   3.890663   -2.82141 C.2        1 UNL1     0.0115
     6 C         10.906669   3.25274   -3.695381 C.3        1 UNL1     -0.0348
     7 C         9.894594   5.371151   -3.433464 C.2        1 UNL1     0.2441
     8 O         10.729029   6.186751   -3.065984 O.2        1 UNL1     -0.2702
     9 N         9.135441   5.58103   -4.597848 N.am        1 UNL1     -0.2772
     10 C         7.859079   5.979841   -4.273546 C.2        1 UNL1     0.1049
     11 C         7.007615   5.016742   -3.970775 C.2        1 UNL1     0.0801
     12 C         6.587747   7.602097   -2.856036 C.ar        1 UNL1     0.0753
     13 C         5.823078   6.482227   -2.398017 C.ar        1 UNL1     0.0305
     14 C         5.922712   5.173569   -3.040309 C.2        1 UNL1     0.0924
     15 N         7.117216   3.686261   -4.12677 N.pl3        1 UNL1     -0.3170
     16 C         5.84515   3.099153   -3.79904 C.3        1 UNL1     0.1275
     17 N         5.226129   4.06292   -2.816346 N.2        1 UNL1     -0.2557
     18 C         4.981237   3.161748   -5.055001 C.3        1 UNL1     0.0016
     19 C         5.719714   2.467619   -6.188327 C.3        1 UNL1     0.0026
     20 N         5.981421   1.088415   -5.800599 N.3        1 UNL1     -0.3018
     21 C         6.754746   0.925205   -4.567838 C.3        1 UNL1     0.0026
     22 C         5.992392   1.625946   -3.441928 C.3        1 UNL1     0.0016
     23 C         6.408547   0.261609   -6.911725 C.3        1 UNL1     0.0012
     24 C         5.241976   0.019178   -7.882341 C.3        1 UNL1     -0.0339
     25 C         5.275477   1.007344   -9.059823 C.3        1 UNL1     -0.0615
     26 C         5.254116   -1.422006   -8.361529 C.3        1 UNL1     -0.0615
     27 C         6.399087   8.873188   -2.318585 C.ar        1 UNL1     0.1347
     28 C         5.451296   9.15405   -1.350671 C.ar        1 UNL1     0.0342
     29 C         4.744181   8.027186   -0.880215 C.ar        1 UNL1     0.1435
     30 C         4.947812   6.741738   -1.383582 C.ar        1 UNL1     0.0774
     31 O         3.712128   8.152458   -0.017557 O.3        1 UNL1     -0.4436
     32 C         2.978489   6.925541   -0.149165 C.3        1 UNL1     0.3143
     33 C         3.978173   5.922001   -0.687452 C.2        1 UNL1     0.2504
     34 C         5.020421   10.525353   -0.910244 C.3        1 UNL1     -0.0327
     35 O         2.626226   6.496075   1.171715 O.2        1 UNL1     -0.4528
     36 C         -0.637001   4.591005   0.810954 C.3        1 UNL1     0.0854
     37 C         -0.961507   3.330357   -0.079543 C.3        1 UNL1     0.0236
     38 C         -1.5657   2.07704   0.717886 C.3        1 UNL1     0.1131
     39 C         -0.832608   1.543835   2.014241 C.3        1 UNL1     0.0200
     40 C         0.827566   1.383947   2.040592 C.3        1 UNL1     0.0661
     41 C         1.769399   0.603168   0.865456 C.3        1 UNL1     0.0091
     42 C         3.474796   0.949081   0.284621 C.3        1 UNL1     0.0661
     43 C         7.525569   7.382651   -3.985015 C.2        1 UNL1     0.2131
     44 O         7.926592   8.274978   -4.710046 O.2        1 UNL1     -0.2851
     45 O         7.21605   9.899751   -2.787816 O.3        1 UNL1     -0.5056
     46 O         3.984913   4.718784   -0.553 O.2        1 UNL1     -0.2836
     47 C         5.592339   1.276755   1.874102 C.3        1 UNL1     -0.0566
     48 O         3.91182   -0.46562   0.366766 O.3        1 UNL1     -0.3909
     49 C         0.921818   0.374011   -0.366042 C.3        1 UNL1     -0.0577
     50 O         1.44192   2.597745   2.423981 O.3        1 UNL1     -0.3910
     51 O         -0.749888   4.406738   2.204056 O.3        1 UNL1     -0.3753
     52 C         0.070836   3.157212   -1.24111 C.3        1 UNL1     -0.0564
     53 O         -2.185584   1.040561   -0.173058 O.3        1 UNL1     -0.4608
     54 C         -2.428192   -0.263038   0.172923 C.2        1 UNL1     0.3042
     55 O         -1.87083   -1.268349   -0.265866 O.2        1 UNL1     -0.2512
     56 C         -3.461198   -0.41639   1.252782 C.3        1 UNL1     0.0332
     57 C         -1.536127   2.223001   3.279931 C.3        1 UNL1     -0.0567
     58 C         1.895505   7.176626   -1.224167 C.3        1 UNL1     0.0210
     59 C         -1.045987   5.590721   2.943227 C.3        1 UNL1     0.0372
     60 C         0.695225   5.207761   0.566115 C.2        1 UNL1     -0.0208
     61 C         1.619893   5.637718   1.425692 C.2        1 UNL1     0.0882
     62 H         4.719945   2.693758   0.526753 H        1 UNL1     0.0365
     63 H         6.366109   3.552539   -0.323463 H        1 UNL1     0.0576
     64 H         8.344171   1.413242   -1.327184 H        1 UNL1     0.0615
     65 H         8.302247   4.5305   -1.52418 H        1 UNL1     0.0622
     66 H         -1.377969   5.343028   0.505219 H        1 UNL1     0.0645
     67 H         -1.829941   3.645354   -0.683827 H        1 UNL1     0.0362
     68 H         -2.505651   2.523248   1.076931 H        1 UNL1     0.0741
     69 H         -1.171086   0.536278   2.21591 H        1 UNL1     0.0359
     70 H         0.941731   0.72541   2.922838 H        1 UNL1     0.0600
     71 H         1.808047   -0.417006   1.295234 H        1 UNL1     0.0348
     72 H         3.38221   1.441235   1.263665 H        1 UNL1     0.0602
     73 H         0.805255   5.400749   -0.472103 H        1 UNL1     0.0628
     74 H         1.610396   5.430544   2.496311 H        1 UNL1     0.1022
     75 H         10.924114   2.1443   -3.560877 H        1 UNL1     0.0279
     76 H         10.797451   3.356311   -4.772606 H        1 UNL1     0.0279
     77 H         11.918083   3.527541   -3.361875 H        1 UNL1     0.0279
     78 H         9.061039   4.710026   -5.119282 H        1 UNL1     0.1553
     79 H         7.773013   3.250566   -4.748891 H        1 UNL1     0.1484
     80 H         4.017559   2.679821   -4.850457 H        1 UNL1     0.0317
     81 H         4.761153   4.199589   -5.327215 H        1 UNL1     0.0317
     82 H         6.652629   2.990012   -6.446567 H        1 UNL1     0.0428
     83 H         5.086856   2.525435   -7.074441 H        1 UNL1     0.0428
     84 H         6.868848   -0.117789   -4.256461 H        1 UNL1     0.0428
     85 H         7.786995   1.283917   -4.682312 H        1 UNL1     0.0428
     86 H         6.514985   1.373919   -2.537844 H        1 UNL1     0.0317
     87 H         5.010031   1.157259   -3.3063 H        1 UNL1     0.0317
     88 H         7.204384   0.794799   -7.448051 H        1 UNL1     0.0429
     89 H         6.836129   -0.686802   -6.561777 H        1 UNL1     0.0429
     90 H         4.29494   0.148205   -7.345045 H        1 UNL1     0.0308
     91 H         6.22319   0.946592   -9.603194 H        1 UNL1     0.0233
     92 H         4.452452   0.812303   -9.751341 H        1 UNL1     0.0233
     93 H         5.161411   2.048528   -8.734617 H        1 UNL1     0.0233
     94 H         4.550812   -1.55002   -9.191477 H        1 UNL1     0.0233
     95 H         6.252073   -1.687741   -8.721292 H        1 UNL1     0.0233
     96 H         4.972529   -2.11125   -7.560517 H        1 UNL1     0.0233
     97 H         4.227192   10.484967   -0.169712 H        1 UNL1     0.0280
     98 H         5.840015   11.086311   -0.442432 H        1 UNL1     0.0280
     99 H         4.652467   11.093704   -1.780119 H        1 UNL1     0.0280
     100 H         6.752628   10.653923   -3.107327 H        1 UNL1     0.2922
     101 H         4.72749   0.863688   2.392819 H        1 UNL1     0.0236
     102 H         6.066456   2.076452   2.442153 H        1 UNL1     0.0236
     103 H         6.332293   0.459056   1.868694 H        1 UNL1     0.0236
     104 H         4.332922   -0.594057   1.239204 H        1 UNL1     0.2098
     105 H         0.711701   1.272869   -0.940252 H        1 UNL1     0.0234
     106 H         1.27827   -0.419244   -1.023017 H        1 UNL1     0.0234
     107 H         0.0   -0.0   0.0 H        1 UNL1     0.0234
     108 H         1.257603   3.250714   1.721538 H        1 UNL1     0.2098
     109 H         1.099667   3.048372   -0.870474 H        1 UNL1     0.0234
     110 H         -0.168386   2.322406   -1.908654 H        1 UNL1     0.0234
     111 H         0.084765   4.032592   -1.904031 H        1 UNL1     0.0234
     112 H         -3.591542   -1.475389   1.495427 H        1 UNL1     0.0342
     113 H         -3.212571   0.160521   2.142278 H        1 UNL1     0.0342
     114 H         -4.418511   -0.038761   0.867929 H        1 UNL1     0.0342
     115 H         -2.60747   1.984177   3.32868 H        1 UNL1     0.0234
     116 H         -1.093258   1.942448   4.237639 H        1 UNL1     0.0234
     117 H         -1.565601   3.324995   3.228132 H        1 UNL1     0.0234
     118 H         1.001909   7.671248   -0.804832 H        1 UNL1     0.0309
     119 H         2.261725   7.760028   -2.074888 H        1 UNL1     0.0309
     120 H         1.49604   6.24679   -1.643618 H        1 UNL1     0.0309
     121 H         -0.220163   6.286273   2.796333 H        1 UNL1     0.0524
     122 H         -1.964803   6.086629   2.588418 H        1 UNL1     0.0524
     123 H         -1.156283   5.357308   3.998427 H        1 UNL1     0.0524
@<TRIPOS>BOND
     1     1     2    1
     2     1    42    1
     3     2     3    2
     4     3     4    1
     5     4     5    2
     6     5     7    1
     7     6    75    1
     8     6    76    1
     9     6    77    1
    10     7     9   am
    11     9    10    1
    12    10    11    2
    13    10    43    1
    14    11    14    1
    15    11    15    1
    16    12    13   ar
    17    12    27   ar
    18    12    43    1
    19    13    14    1
    20    13    30   ar
    21    14    17    2
    22    15    16    1
    23    16    17    1
    24    16    18    1
    25    16    22    1
    26    18    19    1
    27    19    20    1
    28    20    21    1
    29    21    22    1
    30    23    24    1
    31    23    88    1
    32    23    89    1
    33    24    25    1
    34    24    26    1
    35    24    90    1
    36    25    91    1
    37    25    92    1
    38    25    93    1
    39    26    94    1
    40    26    95    1
    41    26    96    1
    42    27    28   ar
    43    28    29   ar
    44    29    30   ar
    45    29    31    1
    46    30    33    1
    47    31    32    1
    48    32    33    1
    49    32    35    1
    50    34    97    1
    51    34    98    1
    52    34    99    1
    53    35    61    1
    54    36    37    1
    55    36    60    1
    56    37    38    1
    57    38    39    1
    58    39    40    1
    59    40    41    1
    60    41    42    1
    61    45   100    1
    62    47   101    1
    63    47   102    1
    64    47   103    1
    65    48   104    1
    66    49   105    1
    67    49   106    1
    68    49   107    1
    69    50   108    1
    70    51    59    1
    71    52   109    1
    72    52   110    1
    73    52   111    1
    74    53    54    1
    75    54    55    2
    76    54    56    1
    77    56   112    1
    78    56   113    1
    79    56   114    1
    80    57   115    1
    81    57   116    1
    82    57   117    1
    83    58   118    1
    84    58   119    1
    85    58   120    1
    86    59   121    1
    87    59   122    1
    88    59   123    1
    89    60    61    2
    90     1    47    1
    91     1    62    1
    92     2    63    1
    93     3    64    1
    94     4    65    1
    95     5     6    1
    96     7     8    2
    97     9    78    1
    98    15    79    1
    99    18    80    1
   100    18    81    1
   101    19    82    1
   102    19    83    1
   103    20    23    1
   104    21    84    1
   105    21    85    1
   106    22    86    1
   107    22    87    1
   108    27    45    1
   109    28    34    1
   110    32    58    1
   111    33    46    2
   112    36    51    1
   113    36    66    1
   114    37    52    1
   115    37    67    1
   116    38    53    1
   117    38    68    1
   118    42    48    1
   119    42    72    1
   120    43    44    2
   121    60    73    1
   122    61    74    1
   123    39    69    1
   124    39    57    1
   125    40    70    1
   126    40    50    1
   127    41    71    1
   128    41    49    1
