@<TRIPOS>MOLECULE
*****
 123 128 0 0 0
SMALL
GASTEIGER

@<TRIPOS>ATOM
     1 C         1.183254   -1.028004   -3.931407 C.3        1 UNL1     0.0009
     2 C         0.172274   -1.883428   -5.228792 C.2        1 UNL1     -0.0787
     3 C         -0.142833   -3.070418   -5.995478 C.2        1 UNL1     -0.0649
     4 C         -1.410278   -3.292464   -7.095768 C.2        1 UNL1     -0.0542
     5 C         -2.209219   -4.24941   -7.768838 C.2        1 UNL1     0.0115
     6 C         -2.361789   -5.763848   -8.079522 C.3        1 UNL1     -0.0348
     7 C         -3.600798   -3.781192   -8.417889 C.2        1 UNL1     0.2441
     8 O         -3.741691   -3.579714   -9.616256 O.2        1 UNL1     -0.2702
     9 N         -4.710529   -3.870255   -7.559567 N.am        1 UNL1     -0.2772
     10 C         -4.848079   -2.711322   -6.83068 C.2        1 UNL1     0.1049
     11 C         -4.100127   -2.613304   -5.746622 C.2        1 UNL1     0.0801
     12 C         -4.912888   -0.221041   -7.057915 C.ar        1 UNL1     0.0753
     13 C         -3.937506   -0.178587   -6.011283 C.ar        1 UNL1     0.0305
     14 C         -3.598252   -1.3677   -5.232844 C.2        1 UNL1     0.0924
     15 N         -3.371629   -3.547942   -5.112374 N.pl3        1 UNL1     -0.3170
     16 C         -2.885916   -2.970033   -3.887483 C.3        1 UNL1     0.1275
     17 N         -2.801619   -1.490851   -4.174951 N.2        1 UNL1     -0.2557
     18 C         -3.984712   -3.13634   -2.842165 C.3        1 UNL1     0.0016
     19 C         -4.341838   -4.610818   -2.74233 C.3        1 UNL1     0.0026
     20 N         -3.147767   -5.357195   -2.370653 N.3        1 UNL1     -0.3018
     21 C         -2.013226   -5.210491   -3.2848 C.3        1 UNL1     0.0026
     22 C         -1.668521   -3.722405   -3.366487 C.3        1 UNL1     0.0016
     23 C         -3.437615   -6.716316   -1.959045 C.3        1 UNL1     0.0012
     24 C         -4.917098   -7.050217   -2.20683 C.3        1 UNL1     -0.0339
     25 C         -5.46576   -8.004248   -1.13312 C.3        1 UNL1     -0.0615
     26 C         -5.732958   -5.771732   -2.288234 C.3        1 UNL1     -0.0615
     27 C         -5.318753   0.938827   -7.713732 C.ar        1 UNL1     0.1347
     28 C         -4.851411   2.19878   -7.384855 C.ar        1 UNL1     0.0342
     29 C         -3.855902   2.210643   -6.384862 C.ar        1 UNL1     0.1435
     30 C         -3.413161   1.052761   -5.744152 C.ar        1 UNL1     0.0774
     31 O         -3.380743   3.368863   -5.877165 O.3        1 UNL1     -0.4436
     32 C         -2.788726   2.999102   -4.622707 C.3        1 UNL1     0.3143
     33 C         -2.465128   1.524803   -4.756643 C.2        1 UNL1     0.2504
     34 C         -5.420906   3.503965   -7.866797 C.3        1 UNL1     -0.0327
     35 O         -1.539143   3.692888   -4.520451 O.2        1 UNL1     -0.4528
     36 C         -0.967337   4.265718   -0.811948 C.3        1 UNL1     0.0854
     37 C         -0.894729   3.21204   0.359381 C.3        1 UNL1     0.0236
     38 C         0.443091   3.27326   1.241557 C.3        1 UNL1     0.1131
     39 C         1.855036   3.261237   0.528439 C.3        1 UNL1     0.0200
     40 C         2.15332   2.21678   -0.737489 C.3        1 UNL1     0.0661
     41 C         1.840237   0.549587   -0.745037 C.3        1 UNL1     0.0091
     42 C         1.357657   -0.564387   -2.120384 C.3        1 UNL1     0.0661
     43 C         -5.543949   -1.529499   -7.361164 C.2        1 UNL1     0.2131
     44 O         -6.620664   -1.644477   -7.918122 O.2        1 UNL1     -0.2851
     45 O         -6.238488   0.804742   -8.751782 O.3        1 UNL1     -0.5056
     46 O         -1.604028   0.888013   -4.191966 O.2        1 UNL1     -0.2836
     47 C         2.601753   -0.70978   -4.475995 C.3        1 UNL1     -0.0566
     48 O         2.357492   -1.605204   -1.779584 O.3        1 UNL1     -0.3909
     49 C         0.94554   0.215759   0.42781 C.3        1 UNL1     -0.0577
     50 O         1.750682   2.789569   -1.965299 O.3        1 UNL1     -0.3910
     51 O         0.209205   5.005266   -1.049119 O.3        1 UNL1     -0.3753
     52 C         -1.569907   1.85759   -0.03375 C.3        1 UNL1     -0.0564
     53 O         0.342781   2.523022   2.537476 O.3        1 UNL1     -0.4608
     54 C         0.804787   2.964617   3.749695 C.2        1 UNL1     0.3042
     55 O         0.145669   3.184554   4.765091 O.2        1 UNL1     -0.2512
     56 C         2.297237   3.127857   3.801278 C.3        1 UNL1     0.0332
     57 C         2.32723   4.780922   0.367929 C.3        1 UNL1     -0.0567
     58 C         -3.890161   3.172754   -3.551158 C.3        1 UNL1     0.0210
     59 C         0.001994   6.289501   -1.635352 C.3        1 UNL1     0.0372
     60 C         -1.401444   3.716845   -2.125512 C.2        1 UNL1     -0.0208
     61 C         -0.911199   3.915198   -3.349873 C.2        1 UNL1     0.0882
     62 H         0.579727   -0.125085   -4.08374 H        1 UNL1     0.0365
     63 H         -0.439214   -1.053971   -5.590113 H        1 UNL1     0.0576
     64 H         0.344972   -4.027109   -5.795735 H        1 UNL1     0.0615
     65 H         -1.77202   -2.278115   -7.284769 H        1 UNL1     0.0622
     66 H         -1.75498   4.967509   -0.503479 H        1 UNL1     0.0645
     67 H         -1.650981   3.562962   1.082912 H        1 UNL1     0.0362
     68 H         0.338432   4.284041   1.66451 H        1 UNL1     0.0741
     69 H         2.607925   2.978079   1.251894 H        1 UNL1     0.0359
     70 H         3.259089   2.258199   -0.762372 H        1 UNL1     0.0600
     71 H         2.817011   0.167877   -0.388432 H        1 UNL1     0.0348
     72 H         1.792057   0.32905   -2.591961 H        1 UNL1     0.0602
     73 H         -2.310514   3.183407   -1.997907 H        1 UNL1     0.0628
     74 H         0.042487   4.400039   -3.561178 H        1 UNL1     0.1022
     75 H         -1.386982   -6.196176   -8.410999 H        1 UNL1     0.0279
     76 H         -2.630672   -6.405868   -7.24371 H        1 UNL1     0.0279
     77 H         -2.994287   -5.956025   -8.958564 H        1 UNL1     0.0279
     78 H         -4.572107   -4.632652   -6.899517 H        1 UNL1     0.1553
     79 H         -3.506521   -4.535095   -5.231813 H        1 UNL1     0.1484
     80 H         -3.627056   -2.74497   -1.882124 H        1 UNL1     0.0317
     81 H         -4.870664   -2.55026   -3.109093 H        1 UNL1     0.0317
     82 H         -4.769582   -4.990638   -3.681843 H        1 UNL1     0.0428
     83 H         -5.128152   -4.706543   -1.992932 H        1 UNL1     0.0428
     84 H         -1.105203   -5.715998   -2.941627 H        1 UNL1     0.0428
     85 H         -2.216694   -5.66368   -4.26487 H        1 UNL1     0.0428
     86 H         -0.757991   -3.666827   -3.933791 H        1 UNL1     0.0317
     87 H         -1.374256   -3.351083   -2.377233 H        1 UNL1     0.0317
     88 H         -2.820411   -7.394852   -2.562322 H        1 UNL1     0.0429
     89 H         -3.164878   -6.881645   -0.908781 H        1 UNL1     0.0429
     90 H         -5.017312   -7.532367   -3.186474 H        1 UNL1     0.0308
     91 H         -5.010034   -8.995829   -1.211757 H        1 UNL1     0.0233
     92 H         -5.284822   -7.60472   -0.132496 H        1 UNL1     0.0233
     93 H         -6.550343   -8.145239   -1.214577 H        1 UNL1     0.0233
     94 H         -5.071987   -4.89898   -2.25277 H        1 UNL1     0.0233
     95 H         -6.283648   -5.739406   -3.232511 H        1 UNL1     0.0233
     96 H         -6.445253   -5.699587   -1.461553 H        1 UNL1     0.0233
     97 H         -4.956691   4.355934   -7.379064 H        1 UNL1     0.0280
     98 H         -5.263926   3.651635   -8.943276 H        1 UNL1     0.0280
     99 H         -6.502946   3.533834   -7.658486 H        1 UNL1     0.0280
     100 H         -6.900307   0.151649   -8.606569 H        1 UNL1     0.2922
     101 H         2.674363   0.350983   -4.715089 H        1 UNL1     0.0236
     102 H         2.889014   -1.339301   -5.317521 H        1 UNL1     0.0236
     103 H         3.384258   -0.879957   -3.717761 H        1 UNL1     0.0236
     104 H         3.11804   -1.492343   -2.382742 H        1 UNL1     0.2098
     105 H         1.259074   -0.654889   0.998319 H        1 UNL1     0.0234
     106 H         0.740343   1.051683   1.096429 H        1 UNL1     0.0234
     107 H         -0.0   0.0   0.0 H        1 UNL1     0.0234
     108 H         1.383501   2.070249   -2.514411 H        1 UNL1     0.2098
     109 H         -2.636032   1.977887   -0.271694 H        1 UNL1     0.0234
     110 H         -1.064687   1.349304   -0.862086 H        1 UNL1     0.0234
     111 H         -1.529073   1.13124   0.788864 H        1 UNL1     0.0234
     112 H         2.689102   2.679843   4.719467 H        1 UNL1     0.0342
     113 H         2.785652   2.708881   2.922783 H        1 UNL1     0.0342
     114 H         2.524129   4.202565   3.827483 H        1 UNL1     0.0342
     115 H         1.542286   5.48682   0.672494 H        1 UNL1     0.0234
     116 H         3.228201   5.027894   0.933 H        1 UNL1     0.0234
     117 H         2.489777   5.082613   -0.68112 H        1 UNL1     0.0234
     118 H         -3.725629   4.069953   -2.929088 H        1 UNL1     0.0309
     119 H         -4.899026   3.210356   -3.974216 H        1 UNL1     0.0309
     120 H         -3.898029   2.356692   -2.820345 H        1 UNL1     0.0309
     121 H         -0.138335   6.144359   -2.706145 H        1 UNL1     0.0524
     122 H         -0.902539   6.785978   -1.246291 H        1 UNL1     0.0524
     123 H         0.861129   6.928868   -1.453171 H        1 UNL1     0.0524
@<TRIPOS>BOND
     1     1     2    1
     2     1    42    1
     3     2     3    2
     4     3     4    1
     5     4     5    2
     6     5     7    1
     7     6    75    1
     8     6    76    1
     9     6    77    1
    10     7     9   am
    11     9    10    1
    12    10    11    2
    13    10    43    1
    14    11    14    1
    15    11    15    1
    16    12    13   ar
    17    12    27   ar
    18    12    43    1
    19    13    14    1
    20    13    30   ar
    21    14    17    2
    22    15    16    1
    23    16    17    1
    24    16    18    1
    25    16    22    1
    26    18    19    1
    27    19    20    1
    28    20    21    1
    29    21    22    1
    30    23    24    1
    31    23    88    1
    32    23    89    1
    33    24    25    1
    34    24    26    1
    35    24    90    1
    36    25    91    1
    37    25    92    1
    38    25    93    1
    39    26    94    1
    40    26    95    1
    41    26    96    1
    42    27    28   ar
    43    28    29   ar
    44    29    30   ar
    45    29    31    1
    46    30    33    1
    47    31    32    1
    48    32    33    1
    49    32    35    1
    50    34    97    1
    51    34    98    1
    52    34    99    1
    53    35    61    1
    54    36    37    1
    55    36    60    1
    56    37    38    1
    57    38    39    1
    58    39    40    1
    59    40    41    1
    60    41    42    1
    61    45   100    1
    62    47   101    1
    63    47   102    1
    64    47   103    1
    65    48   104    1
    66    49   105    1
    67    49   106    1
    68    49   107    1
    69    50   108    1
    70    51    59    1
    71    52   109    1
    72    52   110    1
    73    52   111    1
    74    53    54    1
    75    54    55    2
    76    54    56    1
    77    56   112    1
    78    56   113    1
    79    56   114    1
    80    57   115    1
    81    57   116    1
    82    57   117    1
    83    58   118    1
    84    58   119    1
    85    58   120    1
    86    59   121    1
    87    59   122    1
    88    59   123    1
    89    60    61    2
    90     1    47    1
    91     1    62    1
    92     2    63    1
    93     3    64    1
    94     4    65    1
    95     5     6    1
    96     7     8    2
    97     9    78    1
    98    15    79    1
    99    18    80    1
   100    18    81    1
   101    19    82    1
   102    19    83    1
   103    20    23    1
   104    21    84    1
   105    21    85    1
   106    22    86    1
   107    22    87    1
   108    27    45    1
   109    28    34    1
   110    32    58    1
   111    33    46    2
   112    36    51    1
   113    36    66    1
   114    37    52    1
   115    37    67    1
   116    38    53    1
   117    38    68    1
   118    42    48    1
   119    42    72    1
   120    43    44    2
   121    60    73    1
   122    61    74    1
   123    39    69    1
   124    39    57    1
   125    40    70    1
   126    40    50    1
   127    41    71    1
   128    41    49    1
