@<TRIPOS>MOLECULE
*****
 123 128 0 0 0
SMALL
GASTEIGER

@<TRIPOS>ATOM
     1 C         0.004649   4.012139   -1.460417 C.3        1 UNL1     0.0009
     2 C         -1.335038   4.879754   -2.403562 C.2        1 UNL1     -0.0787
     3 C         -1.851101   5.417703   -3.644664 C.2        1 UNL1     -0.0649
     4 C         -3.383503   6.075878   -3.936053 C.2        1 UNL1     -0.0542
     5 C         -4.33661   6.402386   -4.932073 C.2        1 UNL1     0.0115
     6 C         -4.560866   6.526008   -6.46431 C.3        1 UNL1     -0.0348
     7 C         -5.86119   6.652599   -4.496141 C.2        1 UNL1     0.2441
     8 O         -6.348871   7.769718   -4.392514 O.2        1 UNL1     -0.2702
     9 N         -6.669769   5.502664   -4.495066 N.am        1 UNL1     -0.2772
     10 C         -6.597306   4.86582   -3.277486 C.2        1 UNL1     0.1049
     11 C         -5.565275   4.060552   -3.102338 C.2        1 UNL1     0.0801
     12 C         -6.746731   5.273131   -0.813931 C.ar        1 UNL1     0.0753
     13 C         -5.507777   4.565417   -0.701058 C.ar        1 UNL1     0.0305
     14 C         -4.945285   3.82311   -1.826952 C.2        1 UNL1     0.0924
     15 N         -4.675054   3.590992   -3.993151 N.pl3        1 UNL1     -0.3170
     16 C         -3.856465   2.615247   -3.323758 C.3        1 UNL1     0.1275
     17 N         -3.872532   3.038379   -1.875164 N.2        1 UNL1     -0.2557
     18 C         -4.599126   1.283898   -3.384309 C.3        1 UNL1     0.0016
     19 C         -4.898936   0.959994   -4.839228 C.3        1 UNL1     0.0026
     20 N         -3.642161   0.892701   -5.572043 N.3        1 UNL1     -0.3018
     21 C         -2.826712   2.107928   -5.520733 C.3        1 UNL1     0.0026
     22 C         -2.53357   2.412057   -4.050539 C.3        1 UNL1     0.0016
     23 C         -3.787223   0.301265   -6.887263 C.3        1 UNL1     0.0012
     24 C         -4.076997   -1.203572   -6.772148 C.3        1 UNL1     -0.0339
     25 C         -3.442489   -1.988774   -7.931852 C.3        1 UNL1     -0.0615
     26 C         -3.608902   -1.722393   -5.423634 C.3        1 UNL1     -0.0615
     27 C         -7.336714   5.876678   0.294116 C.ar        1 UNL1     0.1347
     28 C         -6.804062   5.806444   1.569028 C.ar        1 UNL1     0.0342
     29 C         -5.55928   5.146466   1.647211 C.ar        1 UNL1     0.1435
     30 C         -4.938489   4.568272   0.539272 C.ar        1 UNL1     0.0774
     31 O         -4.965883   4.89963   2.83547 O.3        1 UNL1     -0.4436
     32 C         -4.029062   3.846988   2.561275 C.3        1 UNL1     0.3143
     33 C         -3.746609   3.945064   1.07574 C.2        1 UNL1     0.2504
     34 C         -7.500726   6.208719   2.839041 C.3        1 UNL1     -0.0327
     35 O         -2.810255   4.173921   3.240154 O.2        1 UNL1     -0.4528
     36 C         -1.181257   0.857423   4.109227 C.3        1 UNL1     0.0854
     37 C         -0.759648   -0.325752   3.155359 C.3        1 UNL1     0.0236
     38 C         0.777442   -0.769131   3.267216 C.3        1 UNL1     0.1131
     39 C         1.918359   0.32247   3.172418 C.3        1 UNL1     0.0200
     40 C         1.841174   1.52753   2.021631 C.3        1 UNL1     0.0661
     41 C         1.553605   1.302558   0.365037 C.3        1 UNL1     0.0091
     42 C         0.698395   2.37735   -0.851039 C.3        1 UNL1     0.0661
     43 C         -7.427985   5.266933   -2.132307 C.2        1 UNL1     0.2131
     44 O         -8.619665   5.472473   -2.275098 O.2        1 UNL1     -0.2851
     45 O         -8.519186   6.58479   0.089723 O.3        1 UNL1     -0.5056
     46 O         -2.752506   3.605691   0.47371 O.2        1 UNL1     -0.2836
     47 C         1.19847   4.972971   -1.212274 C.3        1 UNL1     -0.0566
     48 O         1.762888   2.257783   -1.87655 O.3        1 UNL1     -0.3909
     49 C         1.044857   -0.104615   0.144739 C.3        1 UNL1     -0.0577
     50 O         1.091515   2.627347   2.497169 O.3        1 UNL1     -0.3910
     51 O         -0.132165   1.490115   4.806749 O.3        1 UNL1     -0.3753
     52 C         -1.509042   -0.263135   1.784433 C.3        1 UNL1     -0.0564
     53 O         1.067719   -2.09603   2.628933 O.3        1 UNL1     -0.4608
     54 C         0.887799   -3.319122   3.220207 C.2        1 UNL1     0.3042
     55 O         1.752138   -4.04976   3.702829 O.2        1 UNL1     -0.2512
     56 C         -0.552153   -3.737653   3.310111 C.3        1 UNL1     0.0332
     57 C         2.310013   0.741665   4.66542 C.3        1 UNL1     -0.0567
     58 C         -4.769402   2.518531   2.841683 C.3        1 UNL1     0.0210
     59 C         -0.084315   1.205752   6.204145 C.3        1 UNL1     0.0372
     60 C         -1.976746   1.935181   3.460541 C.2        1 UNL1     -0.0208
     61 C         -1.868633   3.261585   3.548339 C.2        1 UNL1     0.0882
     62 H         -0.624558   4.056613   -0.563293 H        1 UNL1     0.0365
     63 H         -2.032505   5.114758   -1.596851 H        1 UNL1     0.0576
     64 H         -1.318179   5.28966   -4.589496 H        1 UNL1     0.0615
     65 H         -3.793239   6.235458   -2.934986 H        1 UNL1     0.0622
     66 H         -1.849719   0.392147   4.847281 H        1 UNL1     0.0645
     67 H         -1.273487   -1.206733   3.577735 H        1 UNL1     0.0362
     68 H         0.792908   -1.117441   4.311229 H        1 UNL1     0.0741
     69 H         2.852594   -0.170015   2.937742 H        1 UNL1     0.0359
     70 H         2.890682   1.878476   2.042339 H        1 UNL1     0.0600
     71 H         2.595165   1.216729   -0.002037 H        1 UNL1     0.0348
     72 H         0.967972   3.028983   -0.007227 H        1 UNL1     0.0602
     73 H         -2.803972   1.502526   2.954818 H        1 UNL1     0.0628
     74 H         -1.022883   3.782928   3.997944 H        1 UNL1     0.1022
     75 H         -3.72247   7.090705   -6.938909 H        1 UNL1     0.0279
     76 H         -4.567536   5.597105   -7.030141 H        1 UNL1     0.0279
     77 H         -5.421632   7.161875   -6.718191 H        1 UNL1     0.0279
     78 H         -6.337558   4.850276   -5.202246 H        1 UNL1     0.1553
     79 H         -4.830762   3.582072   -4.984417 H        1 UNL1     0.1484
     80 H         -3.979042   0.507199   -2.920628 H        1 UNL1     0.0317
     81 H         -5.529281   1.328129   -2.807674 H        1 UNL1     0.0317
     82 H         -5.580106   1.697594   -5.288524 H        1 UNL1     0.0428
     83 H         -5.430192   0.007935   -4.859244 H        1 UNL1     0.0428
     84 H         -1.85378   2.00433   -6.011124 H        1 UNL1     0.0428
     85 H         -3.304742   2.94364   -6.050252 H        1 UNL1     0.0428
     86 H         -1.829843   3.223666   -4.057487 H        1 UNL1     0.0317
     87 H         -1.965358   1.587283   -3.603349 H        1 UNL1     0.0317
     88 H         -4.637531   0.783703   -7.386789 H        1 UNL1     0.0429
     89 H         -2.901494   0.487604   -7.508177 H        1 UNL1     0.0429
     90 H         -5.161533   -1.363254   -6.794465 H        1 UNL1     0.0308
     91 H         -2.407547   -1.677987   -8.103342 H        1 UNL1     0.0233
     92 H         -3.465828   -3.06223   -7.729968 H        1 UNL1     0.0233
     93 H         -3.979029   -1.843705   -8.877323 H        1 UNL1     0.0233
     94 H         -3.447185   -2.804734   -5.470787 H        1 UNL1     0.0233
     95 H         -2.660377   -1.251381   -5.150851 H        1 UNL1     0.0233
     96 H         -4.34345   -1.516556   -4.640028 H        1 UNL1     0.0233
     97 H         -7.575867   5.383925   3.541393 H        1 UNL1     0.0280
     98 H         -6.965738   7.007303   3.369425 H        1 UNL1     0.0280
     99 H         -8.519898   6.558197   2.606131 H        1 UNL1     0.0280
     100 H         -8.491038   7.195742   -0.625517 H        1 UNL1     0.2922
     101 H         1.192975   5.305836   -0.174571 H        1 UNL1     0.0236
     102 H         1.227773   5.809295   -1.909903 H        1 UNL1     0.0236
     103 H         2.1703   4.467279   -1.338824 H        1 UNL1     0.0236
     104 H         1.353278   2.425466   -2.747798 H        1 UNL1     0.2098
     105 H         1.454584   -0.598035   -0.733027 H        1 UNL1     0.0234
     106 H         1.119721   -0.757271   1.01443 H        1 UNL1     0.0234
     107 H         -0.0   0.0   0.0 H        1 UNL1     0.0234
     108 H         0.824344   3.154287   1.719531 H        1 UNL1     0.2098
     109 H         -2.59905   -0.338514   1.902377 H        1 UNL1     0.0234
     110 H         -1.264603   0.630909   1.200756 H        1 UNL1     0.0234
     111 H         -1.222775   -1.095893   1.128299 H        1 UNL1     0.0234
     112 H         -0.62702   -4.708718   3.808883 H        1 UNL1     0.0342
     113 H         -1.164847   -2.991465   3.813752 H        1 UNL1     0.0342
     114 H         -0.940381   -3.852834   2.288751 H        1 UNL1     0.0342
     115 H         1.434303   1.075403   5.238952 H        1 UNL1     0.0234
     116 H         2.793687   -0.052806   5.237193 H        1 UNL1     0.0234
     117 H         2.952362   1.637604   4.716632 H        1 UNL1     0.0234
     118 H         -4.378254   2.00725   3.738678 H        1 UNL1     0.0309
     119 H         -5.852049   2.643374   2.944112 H        1 UNL1     0.0309
     120 H         -4.623276   1.77982   2.046033 H        1 UNL1     0.0309
     121 H         0.411387   2.043274   6.69424 H        1 UNL1     0.0524
     122 H         -1.089994   1.110313   6.646342 H        1 UNL1     0.0524
     123 H         0.467708   0.287221   6.382093 H        1 UNL1     0.0524
@<TRIPOS>BOND
     1     1     2    1
     2     1    42    1
     3     2     3    2
     4     3     4    1
     5     4     5    2
     6     5     7    1
     7     6    75    1
     8     6    76    1
     9     6    77    1
    10     7     9   am
    11     9    10    1
    12    10    11    2
    13    10    43    1
    14    11    14    1
    15    11    15    1
    16    12    13   ar
    17    12    27   ar
    18    12    43    1
    19    13    14    1
    20    13    30   ar
    21    14    17    2
    22    15    16    1
    23    16    17    1
    24    16    18    1
    25    16    22    1
    26    18    19    1
    27    19    20    1
    28    20    21    1
    29    21    22    1
    30    23    24    1
    31    23    88    1
    32    23    89    1
    33    24    25    1
    34    24    26    1
    35    24    90    1
    36    25    91    1
    37    25    92    1
    38    25    93    1
    39    26    94    1
    40    26    95    1
    41    26    96    1
    42    27    28   ar
    43    28    29   ar
    44    29    30   ar
    45    29    31    1
    46    30    33    1
    47    31    32    1
    48    32    33    1
    49    32    35    1
    50    34    97    1
    51    34    98    1
    52    34    99    1
    53    35    61    1
    54    36    37    1
    55    36    60    1
    56    37    38    1
    57    38    39    1
    58    39    40    1
    59    40    41    1
    60    41    42    1
    61    45   100    1
    62    47   101    1
    63    47   102    1
    64    47   103    1
    65    48   104    1
    66    49   105    1
    67    49   106    1
    68    49   107    1
    69    50   108    1
    70    51    59    1
    71    52   109    1
    72    52   110    1
    73    52   111    1
    74    53    54    1
    75    54    55    2
    76    54    56    1
    77    56   112    1
    78    56   113    1
    79    56   114    1
    80    57   115    1
    81    57   116    1
    82    57   117    1
    83    58   118    1
    84    58   119    1
    85    58   120    1
    86    59   121    1
    87    59   122    1
    88    59   123    1
    89    60    61    2
    90     1    47    1
    91     1    62    1
    92     2    63    1
    93     3    64    1
    94     4    65    1
    95     5     6    1
    96     7     8    2
    97     9    78    1
    98    15    79    1
    99    18    80    1
   100    18    81    1
   101    19    82    1
   102    19    83    1
   103    20    23    1
   104    21    84    1
   105    21    85    1
   106    22    86    1
   107    22    87    1
   108    27    45    1
   109    28    34    1
   110    32    58    1
   111    33    46    2
   112    36    51    1
   113    36    66    1
   114    37    52    1
   115    37    67    1
   116    38    53    1
   117    38    68    1
   118    42    48    1
   119    42    72    1
   120    43    44    2
   121    60    73    1
   122    61    74    1
   123    39    69    1
   124    39    57    1
   125    40    70    1
   126    40    50    1
   127    41    71    1
   128    41    49    1
