@<TRIPOS>MOLECULE
*****
 123 128 0 0 0
SMALL
GASTEIGER

@<TRIPOS>ATOM
     1 C         1.060504   4.265981   1.282507 C.3        1 UNL1     0.0009
     2 C         0.11374   5.761541   1.833848 C.2        1 UNL1     -0.0787
     3 C         -0.676881   6.93336   1.521113 C.2        1 UNL1     -0.0649
     4 C         -1.455102   7.981602   2.599037 C.2        1 UNL1     -0.0542
     5 C         -2.473317   8.956605   2.739341 C.2        1 UNL1     0.0115
     6 C         -3.472536   9.851713   1.955973 C.3        1 UNL1     -0.0348
     7 C         -3.01593   9.307276   4.208896 C.2        1 UNL1     0.2441
     8 O         -2.681688   10.313493   4.81909 O.2        1 UNL1     -0.2702
     9 N         -4.097434   8.519917   4.640828 N.am        1 UNL1     -0.2772
     10 C         -3.643122   7.377515   5.25876 C.2        1 UNL1     0.1049
     11 C         -3.316551   6.375684   4.462576 C.2        1 UNL1     0.0801
     12 C         -2.03943   6.56762   6.999328 C.ar        1 UNL1     0.0753
     13 C         -1.573952   5.630878   6.022367 C.ar        1 UNL1     0.0305
     14 C         -2.288186   5.417558   4.76562 C.2        1 UNL1     0.0924
     15 N         -3.548956   6.20442   3.149874 N.pl3        1 UNL1     -0.3170
     16 C         -3.141732   4.86895   2.802107 C.3        1 UNL1     0.1275
     17 N         -2.06104   4.531511   3.800087 N.2        1 UNL1     -0.2557
     18 C         -4.31269   3.942842   3.116565 C.3        1 UNL1     0.0016
     19 C         -5.53996   4.439623   2.369164 C.3        1 UNL1     0.0026
     20 N         -5.247174   4.448201   0.942548 N.3        1 UNL1     -0.3018
     21 C         -4.096507   5.263913   0.548915 C.3        1 UNL1     0.0026
     22 C         -2.874195   4.744574   1.307951 C.3        1 UNL1     0.0016
     23 C         -6.43193   4.615942   0.124709 C.3        1 UNL1     0.0012
     24 C         -6.727822   6.107872   -0.095176 C.3        1 UNL1     -0.0339
     25 C         -5.673477   6.996511   0.58507 C.3        1 UNL1     -0.0615
     26 C         -6.834175   6.404239   -1.580987 C.3        1 UNL1     -0.0615
     27 C         -1.42364   6.678541   8.243763 C.ar        1 UNL1     0.1347
     28 C         -0.363679   5.882023   8.638846 C.ar        1 UNL1     0.0342
     29 C         0.108795   5.001038   7.642955 C.ar        1 UNL1     0.1435
     30 C         -0.475123   4.904437   6.379259 C.ar        1 UNL1     0.0774
     31 O         1.063482   4.083098   7.909348 O.3        1 UNL1     -0.4436
     32 C         0.934199   3.110733   6.861176 C.3        1 UNL1     0.3143
     33 C         0.260397   3.845572   5.72003 C.2        1 UNL1     0.2504
     34 C         0.181817   5.769101   10.035192 C.3        1 UNL1     -0.0327
     35 O         2.257233   2.780257   6.421155 O.2        1 UNL1     -0.4528
     36 C         2.086259   -0.816204   5.219355 C.3        1 UNL1     0.0854
     37 C         1.164546   -1.45294   4.109159 C.3        1 UNL1     0.0236
     38 C         1.946908   -2.234053   2.947473 C.3        1 UNL1     0.1131
     39 C         3.145546   -1.52697   2.195428 C.3        1 UNL1     0.0200
     40 C         3.018743   0.064671   1.712687 C.3        1 UNL1     0.0661
     41 C         1.727723   0.739578   0.843561 C.3        1 UNL1     0.0091
     42 C         1.018607   2.430913   0.887628 C.3        1 UNL1     0.0661
     43 C         -3.25564   7.354551   6.677099 C.2        1 UNL1     0.2131
     44 O         -3.966596   7.870345   7.520446 O.2        1 UNL1     -0.2851
     45 O         -1.909581   7.646826   9.119962 O.3        1 UNL1     -0.5056
     46 O         0.332402   3.621243   4.53245 O.2        1 UNL1     -0.2836
     47 C         2.431812   4.68494   0.687554 C.3        1 UNL1     -0.0566
     48 O         0.990268   2.580577   -0.58747 O.3        1 UNL1     -0.3909
     49 C         0.564845   -0.227181   0.867732 C.3        1 UNL1     -0.0577
     50 O         3.408264   0.936886   2.754434 O.3        1 UNL1     -0.3910
     51 O         3.472721   -0.85828   4.967593 O.3        1 UNL1     -0.3753
     52 C         -0.089982   -0.566861   3.815942 C.3        1 UNL1     -0.0564
     53 O         1.061926   -3.11444   2.114376 O.3        1 UNL1     -0.4608
     54 C         1.494251   -4.075862   1.238765 C.2        1 UNL1     0.3042
     55 O         1.35261   -4.091082   0.016658 O.2        1 UNL1     -0.2512
     56 C         2.269271   -5.182601   1.895411 C.3        1 UNL1     0.0332
     57 C         4.500691   -1.982613   2.912469 C.3        1 UNL1     -0.0567
     58 C         -0.028024   2.022049   7.390728 C.3        1 UNL1     0.0210
     59 C         3.949004   -2.095906   4.440997 C.3        1 UNL1     0.0372
     60 C         1.757759   0.590226   5.578804 C.2        1 UNL1     -0.0208
     61 C         2.554099   1.644451   5.761001 C.2        1 UNL1     0.0882
     62 H         1.239531   4.015   2.334966 H        1 UNL1     0.0365
     63 H         0.293655   5.730901   2.910492 H        1 UNL1     0.0576
     64 H         -0.986329   7.158775   0.498109 H        1 UNL1     0.0615
     65 H         -1.020177   7.727484   3.569474 H        1 UNL1     0.0622
     66 H         1.884988   -1.412398   6.120515 H        1 UNL1     0.0645
     67 H         0.655158   -2.283726   4.627694 H        1 UNL1     0.0362
     68 H         2.408836   -3.035726   3.543681 H        1 UNL1     0.0741
     69 H         3.3245   -2.044242   1.262255 H        1 UNL1     0.0359
     70 H         3.853033   0.110821   0.986814 H        1 UNL1     0.0600
     71 H         2.100065   0.605371   -0.190996 H        1 UNL1     0.0348
     72 H         2.025746   2.512944   1.321514 H        1 UNL1     0.0602
     73 H         0.725059   0.658033   5.815828 H        1 UNL1     0.0628
     74 H         3.60954   1.674449   5.48827 H        1 UNL1     0.1022
     75 H         -2.924058   10.580885   1.312146 H        1 UNL1     0.0279
     76 H         -4.118131   9.347034   1.240728 H        1 UNL1     0.0279
     77 H         -4.042498   10.526802   2.611029 H        1 UNL1     0.0279
     78 H         -4.65399   8.233397   3.83819 H        1 UNL1     0.1553
     79 H         -4.247281   6.710784   2.637164 H        1 UNL1     0.1484
     80 H         -4.049589   2.920388   2.819693 H        1 UNL1     0.0317
     81 H         -4.511541   3.915248   4.193295 H        1 UNL1     0.0317
     82 H         -5.851741   5.436082   2.715246 H        1 UNL1     0.0428
     83 H         -6.363371   3.766161   2.608943 H        1 UNL1     0.0428
     84 H         -3.849705   5.189906   -0.514768 H        1 UNL1     0.0428
     85 H         -4.282247   6.335459   0.70578 H        1 UNL1     0.0428
     86 H         -2.033156   5.272773   0.898502 H        1 UNL1     0.0317
     87 H         -2.677353   3.701323   1.032315 H        1 UNL1     0.0317
     88 H         -6.242217   4.149766   -0.850987 H        1 UNL1     0.0429
     89 H         -7.296093   4.101461   0.564374 H        1 UNL1     0.0429
     90 H         -7.710725   6.345399   0.32873 H        1 UNL1     0.0308
     91 H         -6.127534   7.894419   1.014832 H        1 UNL1     0.0233
     92 H         -5.153707   6.445517   1.372378 H        1 UNL1     0.0233
     93 H         -4.898914   7.335015   -0.113717 H        1 UNL1     0.0233
     94 H         -6.766882   5.475118   -2.157218 H        1 UNL1     0.0233
     95 H         -7.799603   6.868351   -1.801242 H        1 UNL1     0.0233
     96 H         -6.03636   7.07486   -1.912237 H        1 UNL1     0.0233
     97 H         -0.608064   5.732545   10.779491 H        1 UNL1     0.0280
     98 H         0.770656   4.853397   10.176652 H        1 UNL1     0.0280
     99 H         0.821768   6.639818   10.252932 H        1 UNL1     0.0280
     100 H         -2.847685   7.717527   9.144167 H        1 UNL1     0.2922
     101 H         2.65162   4.079481   -0.191515 H        1 UNL1     0.0236
     102 H         3.24151   4.657432   1.415988 H        1 UNL1     0.0236
     103 H         2.42249   5.723532   0.316836 H        1 UNL1     0.0236
     104 H         0.902993   3.533512   -0.78563 H        1 UNL1     0.2098
     105 H         0.850486   -1.274717   0.813977 H        1 UNL1     0.0234
     106 H         -0.141505   -0.069565   1.682688 H        1 UNL1     0.0234
     107 H         -0.0   0.0   0.0 H        1 UNL1     0.0234
     108 H         2.793658   1.695757   2.742464 H        1 UNL1     0.2098
     109 H         -0.846683   -1.100134   3.223713 H        1 UNL1     0.0234
     110 H         -0.552572   -0.16227   4.722617 H        1 UNL1     0.0234
     111 H         0.171957   0.324395   3.230283 H        1 UNL1     0.0234
     112 H         2.174912   -6.101681   1.309123 H        1 UNL1     0.0342
     113 H         3.315478   -4.918632   2.042431 H        1 UNL1     0.0342
     114 H         1.830489   -5.368158   2.885463 H        1 UNL1     0.0342
     115 H         5.367619   -1.890054   2.243846 H        1 UNL1     0.0234
     116 H         4.728712   -1.42748   3.824544 H        1 UNL1     0.0234
     117 H         4.5308   -3.05935   3.152623 H        1 UNL1     0.0234
     118 H         0.362673   1.003908   7.218244 H        1 UNL1     0.0309
     119 H         -0.266453   2.139036   8.452645 H        1 UNL1     0.0309
     120 H         -0.988104   2.016888   6.863162 H        1 UNL1     0.0309
     121 H         4.806981   -1.875786   3.806349 H        1 UNL1     0.0524
     122 H         4.289476   -2.78402   5.232587 H        1 UNL1     0.0524
     123 H         3.169485   -2.582789   3.861869 H        1 UNL1     0.0524
@<TRIPOS>BOND
     1     1     2    1
     2     1    42    1
     3     2     3    2
     4     3     4    1
     5     4     5    2
     6     5     7    1
     7     6    75    1
     8     6    76    1
     9     6    77    1
    10     7     9   am
    11     9    10    1
    12    10    11    2
    13    10    43    1
    14    11    14    1
    15    11    15    1
    16    12    13   ar
    17    12    27   ar
    18    12    43    1
    19    13    14    1
    20    13    30   ar
    21    14    17    2
    22    15    16    1
    23    16    17    1
    24    16    18    1
    25    16    22    1
    26    18    19    1
    27    19    20    1
    28    20    21    1
    29    21    22    1
    30    23    24    1
    31    23    88    1
    32    23    89    1
    33    24    25    1
    34    24    26    1
    35    24    90    1
    36    25    91    1
    37    25    92    1
    38    25    93    1
    39    26    94    1
    40    26    95    1
    41    26    96    1
    42    27    28   ar
    43    28    29   ar
    44    29    30   ar
    45    29    31    1
    46    30    33    1
    47    31    32    1
    48    32    33    1
    49    32    35    1
    50    34    97    1
    51    34    98    1
    52    34    99    1
    53    35    61    1
    54    36    37    1
    55    36    60    1
    56    37    38    1
    57    38    39    1
    58    39    40    1
    59    40    41    1
    60    41    42    1
    61    45   100    1
    62    47   101    1
    63    47   102    1
    64    47   103    1
    65    48   104    1
    66    49   105    1
    67    49   106    1
    68    49   107    1
    69    50   108    1
    70    51    59    1
    71    52   109    1
    72    52   110    1
    73    52   111    1
    74    53    54    1
    75    54    55    2
    76    54    56    1
    77    56   112    1
    78    56   113    1
    79    56   114    1
    80    57   115    1
    81    57   116    1
    82    57   117    1
    83    58   118    1
    84    58   119    1
    85    58   120    1
    86    59   121    1
    87    59   122    1
    88    59   123    1
    89    60    61    2
    90     1    47    1
    91     1    62    1
    92     2    63    1
    93     3    64    1
    94     4    65    1
    95     5     6    1
    96     7     8    2
    97     9    78    1
    98    15    79    1
    99    18    80    1
   100    18    81    1
   101    19    82    1
   102    19    83    1
   103    20    23    1
   104    21    84    1
   105    21    85    1
   106    22    86    1
   107    22    87    1
   108    27    45    1
   109    28    34    1
   110    32    58    1
   111    33    46    2
   112    36    51    1
   113    36    66    1
   114    37    52    1
   115    37    67    1
   116    38    53    1
   117    38    68    1
   118    42    48    1
   119    42    72    1
   120    43    44    2
   121    60    73    1
   122    61    74    1
   123    39    69    1
   124    39    57    1
   125    40    70    1
   126    40    50    1
   127    41    71    1
   128    41    49    1
