@<TRIPOS>MOLECULE
*****
 123 128 0 0 0
SMALL
GASTEIGER

@<TRIPOS>ATOM
     1 C         -4.037542   1.291581   -2.218038 C.3        1 UNL1     0.0009
     2 C         -4.544638   1.339953   -4.000607 C.2        1 UNL1     -0.0787
     3 C         -4.941975   2.089851   -5.173561 C.2        1 UNL1     -0.0649
     4 C         -5.194222   1.509145   -6.743755 C.2        1 UNL1     -0.0542
     5 C         -5.27543   1.862553   -8.113276 C.2        1 UNL1     0.0115
     6 C         -5.346987   3.060442   -9.099817 C.3        1 UNL1     -0.0348
     7 C         -5.130854   0.711234   -9.222578 C.2        1 UNL1     0.2441
     8 O         -6.088381   0.237322   -9.81846 O.2        1 UNL1     -0.2702
     9 N         -3.814245   0.468266   -9.651133 N.am        1 UNL1     -0.2772
     10 C         -3.209521   -0.464157   -8.839827 C.2        1 UNL1     0.1049
     11 C         -2.689445   -0.007181   -7.715142 C.2        1 UNL1     0.0801
     12 C         -3.55241   -2.718119   -7.810545 C.ar        1 UNL1     0.0753
     13 C         -3.179239   -2.119513   -6.565144 C.ar        1 UNL1     0.0305
     14 C         -2.608915   -0.775687   -6.502587 C.2        1 UNL1     0.0924
     15 N         -2.464369   1.257184   -7.318594 N.pl3        1 UNL1     -0.3170
     16 C         -1.722794   1.205897   -6.086648 C.3        1 UNL1     0.1275
     17 N         -2.120211   -0.108697   -5.460848 N.2        1 UNL1     -0.2557
     18 C         -0.247589   1.072116   -6.452125 C.3        1 UNL1     0.0016
     19 C         0.133394   2.225396   -7.366667 C.3        1 UNL1     0.0026
     20 N         -0.122326   3.478707   -6.670357 N.3        1 UNL1     -0.3018
     21 C         -1.50356   3.67118   -6.223687 C.3        1 UNL1     0.0026
     22 C         -1.863641   2.504068   -5.302772 C.3        1 UNL1     0.0016
     23 C         0.479309   4.621869   -7.327517 C.3        1 UNL1     0.0012
     24 C         1.492275   4.162105   -8.387834 C.3        1 UNL1     -0.0339
     25 C         2.126449   5.358682   -9.115903 C.3        1 UNL1     -0.0615
     26 C         2.546   3.27314   -7.750508 C.3        1 UNL1     -0.0615
     27 C         -3.981626   -4.041638   -7.87526 C.ar        1 UNL1     0.1347
     28 C         -4.040889   -4.874252   -6.77195 C.ar        1 UNL1     0.0342
     29 C         -3.715574   -4.249138   -5.549425 C.ar        1 UNL1     0.1435
     30 C         -3.318657   -2.914058   -5.464338 C.ar        1 UNL1     0.0774
     31 O         -3.619731   -4.9541   -4.401014 O.3        1 UNL1     -0.4436
     32 C         -2.838754   -4.122811   -3.529289 C.3        1 UNL1     0.3143
     33 C         -3.013058   -2.715319   -4.062953 C.2        1 UNL1     0.2504
     34 C         -4.247551   -6.363059   -6.800978 C.3        1 UNL1     -0.0327
     35 O         -3.458602   -4.159077   -2.237884 O.2        1 UNL1     -0.4528
     36 C         -0.655072   -3.680222   0.27588 C.3        1 UNL1     0.0854
     37 C         0.378339   -2.495464   0.402101 C.3        1 UNL1     0.0236
     38 C         0.420557   -1.785712   1.839534 C.3        1 UNL1     0.1131
     39 C         -0.923892   -1.292398   2.511374 C.3        1 UNL1     0.0200
     40 C         -2.076916   -0.494781   1.607615 C.3        1 UNL1     0.0661
     41 C         -1.795868   0.825601   0.580379 C.3        1 UNL1     0.0091
     42 C         -2.627077   1.318159   -0.979071 C.3        1 UNL1     0.0661
     43 C         -3.381966   -1.910214   -9.043631 C.2        1 UNL1     0.2131
     44 O         -3.281267   -2.39385   -10.156597 O.2        1 UNL1     -0.2851
     45 O         -4.369924   -4.53377   -9.119634 O.3        1 UNL1     -0.5056
     46 O         -2.938555   -1.666951   -3.461932 O.2        1 UNL1     -0.2836
     47 C         -5.266889   1.531682   -1.300956 C.3        1 UNL1     -0.0566
     48 O         -2.785359   2.73757   -0.579902 O.3        1 UNL1     -0.3909
     49 C         -0.307131   0.953593   0.346338 C.3        1 UNL1     -0.0577
     50 O         -2.949611   -1.415094   0.983795 O.3        1 UNL1     -0.3910
     51 O         -1.527919   -3.855437   1.36898 O.3        1 UNL1     -0.3753
     52 C         0.499077   -1.684395   -0.929267 C.3        1 UNL1     -0.0564
     53 O         1.627895   -0.918487   2.045886 O.3        1 UNL1     -0.4608
     54 C         2.891793   -1.368518   2.325107 C.2        1 UNL1     0.3042
     55 O         3.204049   -2.334671   3.020004 O.2        1 UNL1     -0.2512
     56 C         3.974067   -0.589401   1.633461 C.3        1 UNL1     0.0332
     57 C         -1.420027   -2.446423   3.501449 C.3        1 UNL1     -0.0567
     58 C         -1.36505   -4.550308   -3.721572 C.3        1 UNL1     0.0210
     59 C         -2.894313   -4.067374   1.016964 C.3        1 UNL1     0.0372
     60 C         -1.501074   -3.649011   -0.94824 C.2        1 UNL1     -0.0208
     61 C         -2.811393   -3.846891   -1.098741 C.2        1 UNL1     0.0882
     62 H         -3.917024   0.204755   -2.301679 H        1 UNL1     0.0365
     63 H         -4.591788   0.272905   -4.227887 H        1 UNL1     0.0576
     64 H         -4.957616   3.18203   -5.176539 H        1 UNL1     0.0615
     65 H         -5.23984   0.424192   -6.616171 H        1 UNL1     0.0622
     66 H         -0.032255   -4.581646   0.188819 H        1 UNL1     0.0645
     67 H         1.362713   -2.994276   0.374629 H        1 UNL1     0.0362
     68 H         0.759478   -2.633967   2.453634 H        1 UNL1     0.0741
     69 H         -0.684105   -0.57026   3.280417 H        1 UNL1     0.0359
     70 H         -2.680959   -0.048172   2.420469 H        1 UNL1     0.0600
     71 H         -1.977383   1.66076   1.28502 H        1 UNL1     0.0348
     72 H         -3.320952   0.634785   -0.468333 H        1 UNL1     0.0602
     73 H         -0.876669   -3.557819   -1.802084 H        1 UNL1     0.0628
     74 H         -3.5266   -3.892282   -0.276758 H        1 UNL1     0.1022
     75 H         -5.250874   4.027542   -8.549806 H        1 UNL1     0.0279
     76 H         -4.550282   3.130036   -9.837033 H        1 UNL1     0.0279
     77 H         -6.338616   3.171743   -9.562404 H        1 UNL1     0.0279
     78 H         -3.270576   1.326577   -9.589461 H        1 UNL1     0.1553
     79 H         -2.421959   2.038681   -7.946604 H        1 UNL1     0.1484
     80 H         0.350273   1.075684   -5.532714 H        1 UNL1     0.0317
     81 H         -0.052744   0.115662   -6.948998 H        1 UNL1     0.0317
     82 H         -0.411154   2.184828   -8.321515 H        1 UNL1     0.0428
     83 H         1.188498   2.109534   -7.616429 H        1 UNL1     0.0428
     84 H         -1.651262   4.581784   -5.634793 H        1 UNL1     0.0428
     85 H         -2.194698   3.785827   -7.070151 H        1 UNL1     0.0428
     86 H         -2.826456   2.745638   -4.892138 H        1 UNL1     0.0317
     87 H         -1.206274   2.502967   -4.424726 H        1 UNL1     0.0317
     88 H         -0.318032   5.186958   -7.827734 H        1 UNL1     0.0429
     89 H         0.946425   5.299222   -6.601039 H        1 UNL1     0.0429
     90 H         0.979115   3.535625   -9.127024 H        1 UNL1     0.0308
     91 H         2.690064   5.991912   -8.424194 H        1 UNL1     0.0233
     92 H         2.791427   5.017701   -9.912863 H        1 UNL1     0.0233
     93 H         1.37752   6.000092   -9.596041 H        1 UNL1     0.0233
     94 H         2.345088   2.222048   -7.984338 H        1 UNL1     0.0233
     95 H         3.534582   3.523373   -8.14554 H        1 UNL1     0.0233
     96 H         2.560823   3.388525   -6.66311 H        1 UNL1     0.0233
     97 H         -5.14077   -6.661055   -6.260063 H        1 UNL1     0.0280
     98 H         -4.374205   -6.743428   -7.823003 H        1 UNL1     0.0280
     99 H         -3.380995   -6.864981   -6.340273 H        1 UNL1     0.0280
     100 H         -4.123159   -5.42735   -9.281635 H        1 UNL1     0.2922
     101 H         -4.952606   2.042452   -0.391013 H        1 UNL1     0.0236
     102 H         -5.826139   0.621551   -1.086747 H        1 UNL1     0.0236
     103 H         -6.002219   2.211048   -1.763498 H        1 UNL1     0.0236
     104 H         -3.018427   2.752883   0.369 H        1 UNL1     0.2098
     105 H         -0.032523   1.68606   -0.408575 H        1 UNL1     0.0234
     106 H         0.284724   1.101837   1.249476 H        1 UNL1     0.0234
     107 H         0.0   0.0   0.0 H        1 UNL1     0.0234
     108 H         -2.714694   -2.304912   1.310608 H        1 UNL1     0.2098
     109 H         -0.469824   -1.567638   -1.434549 H        1 UNL1     0.0234
     110 H         0.962493   -0.701222   -0.793772 H        1 UNL1     0.0234
     111 H         1.152751   -2.18934   -1.652929 H        1 UNL1     0.0234
     112 H         3.559844   -0.066352   0.766176 H        1 UNL1     0.0342
     113 H         4.472857   0.105569   2.307308 H        1 UNL1     0.0342
     114 H         4.729017   -1.299789   1.269366 H        1 UNL1     0.0342
     115 H         -1.049069   -3.434358   3.195567 H        1 UNL1     0.0234
     116 H         -1.128286   -2.294014   4.542462 H        1 UNL1     0.0234
     117 H         -2.511007   -2.6106   3.47405 H        1 UNL1     0.0234
     118 H         -0.880268   -4.005934   -4.550819 H        1 UNL1     0.0309
     119 H         -0.762085   -4.433424   -2.815496 H        1 UNL1     0.0309
     120 H         -1.26721   -5.600517   -4.017536 H        1 UNL1     0.0309
     121 H         -3.49947   -3.395647   1.625178 H        1 UNL1     0.0524
     122 H         -3.095582   -3.829435   -0.040823 H        1 UNL1     0.0524
     123 H         -3.175337   -5.099583   1.205814 H        1 UNL1     0.0524
@<TRIPOS>BOND
     1     1     2    1
     2     1    42    1
     3     2     3    2
     4     3     4    1
     5     4     5    2
     6     5     7    1
     7     6    75    1
     8     6    76    1
     9     6    77    1
    10     7     9   am
    11     9    10    1
    12    10    11    2
    13    10    43    1
    14    11    14    1
    15    11    15    1
    16    12    13   ar
    17    12    27   ar
    18    12    43    1
    19    13    14    1
    20    13    30   ar
    21    14    17    2
    22    15    16    1
    23    16    17    1
    24    16    18    1
    25    16    22    1
    26    18    19    1
    27    19    20    1
    28    20    21    1
    29    21    22    1
    30    23    24    1
    31    23    88    1
    32    23    89    1
    33    24    25    1
    34    24    26    1
    35    24    90    1
    36    25    91    1
    37    25    92    1
    38    25    93    1
    39    26    94    1
    40    26    95    1
    41    26    96    1
    42    27    28   ar
    43    28    29   ar
    44    29    30   ar
    45    29    31    1
    46    30    33    1
    47    31    32    1
    48    32    33    1
    49    32    35    1
    50    34    97    1
    51    34    98    1
    52    34    99    1
    53    35    61    1
    54    36    37    1
    55    36    60    1
    56    37    38    1
    57    38    39    1
    58    39    40    1
    59    40    41    1
    60    41    42    1
    61    45   100    1
    62    47   101    1
    63    47   102    1
    64    47   103    1
    65    48   104    1
    66    49   105    1
    67    49   106    1
    68    49   107    1
    69    50   108    1
    70    51    59    1
    71    52   109    1
    72    52   110    1
    73    52   111    1
    74    53    54    1
    75    54    55    2
    76    54    56    1
    77    56   112    1
    78    56   113    1
    79    56   114    1
    80    57   115    1
    81    57   116    1
    82    57   117    1
    83    58   118    1
    84    58   119    1
    85    58   120    1
    86    59   121    1
    87    59   122    1
    88    59   123    1
    89    60    61    2
    90     1    47    1
    91     1    62    1
    92     2    63    1
    93     3    64    1
    94     4    65    1
    95     5     6    1
    96     7     8    2
    97     9    78    1
    98    15    79    1
    99    18    80    1
   100    18    81    1
   101    19    82    1
   102    19    83    1
   103    20    23    1
   104    21    84    1
   105    21    85    1
   106    22    86    1
   107    22    87    1
   108    27    45    1
   109    28    34    1
   110    32    58    1
   111    33    46    2
   112    36    51    1
   113    36    66    1
   114    37    52    1
   115    37    67    1
   116    38    53    1
   117    38    68    1
   118    42    48    1
   119    42    72    1
   120    43    44    2
   121    60    73    1
   122    61    74    1
   123    39    69    1
   124    39    57    1
   125    40    70    1
   126    40    50    1
   127    41    71    1
   128    41    49    1
