@<TRIPOS>MOLECULE
*****
 123 128 0 0 0
SMALL
GASTEIGER

@<TRIPOS>ATOM
     1 C         3.521276   0.989426   -4.078407 C.3        1 UNL1     0.0009
     2 C         5.06262   0.430675   -4.943908 C.2        1 UNL1     -0.0787
     3 C         6.482124   0.566479   -5.194134 C.2        1 UNL1     -0.0649
     4 C         7.4767   -0.44297   -6.12052 C.2        1 UNL1     -0.0542
     5 C         8.811981   -0.844461   -6.371331 C.2        1 UNL1     0.0115
     6 C         10.300515   -0.512964   -6.07519 C.3        1 UNL1     -0.0348
     7 C         9.07543   -2.22541   -7.146291 C.2        1 UNL1     0.2441
     8 O         9.381786   -2.276481   -8.329534 O.2        1 UNL1     -0.2702
     9 N         9.186981   -3.354532   -6.316356 N.am        1 UNL1     -0.2772
     10 C         7.947751   -3.907588   -6.08885 C.2        1 UNL1     0.1049
     11 C         7.230587   -3.353536   -5.128161 C.2        1 UNL1     0.0801
     12 C         5.869228   -4.665487   -7.256183 C.ar        1 UNL1     0.0753
     13 C         5.143183   -3.874916   -6.309365 C.ar        1 UNL1     0.0305
     14 C         5.793791   -3.299194   -5.134502 C.2        1 UNL1     0.0924
     15 N         7.589033   -2.465081   -4.185457 N.pl3        1 UNL1     -0.3170
     16 C         6.481997   -2.316005   -3.278537 C.3        1 UNL1     0.1275
     17 N         5.264744   -2.631605   -4.113051 N.2        1 UNL1     -0.2557
     18 C         6.589342   -3.434352   -2.246316 C.3        1 UNL1     0.0016
     19 C         7.956667   -3.35709   -1.58598 C.3        1 UNL1     0.0026
     20 N         8.10039   -2.050238   -0.959475 N.3        1 UNL1     -0.3018
     21 C         7.950996   -0.907715   -1.863185 C.3        1 UNL1     0.0026
     22 C         6.568996   -1.002862   -2.511965 C.3        1 UNL1     0.0016
     23 C         9.231409   -1.979329   -0.05592 C.3        1 UNL1     0.0012
     24 C         8.968232   -2.819858   1.203447 C.3        1 UNL1     -0.0339
     25 C         10.020223   -3.928839   1.369378 C.3        1 UNL1     -0.0615
     26 C         8.906125   -1.920823   2.426009 C.3        1 UNL1     -0.0615
     27 C         5.220224   -5.310423   -8.306406 C.ar        1 UNL1     0.1347
     28 C         3.849372   -5.27125   -8.488837 C.ar        1 UNL1     0.0342
     29 C         3.160899   -4.447186   -7.573367 C.ar        1 UNL1     0.1435
     30 C         3.802138   -3.766028   -6.537965 C.ar        1 UNL1     0.0774
     31 O         1.811268   -4.392123   -7.551631 O.3        1 UNL1     -0.4436
     32 C         1.49046   -3.870398   -6.253264 C.3        1 UNL1     0.3143
     33 C         2.729895   -3.119205   -5.81086 C.2        1 UNL1     0.2504
     34 C         3.060658   -6.134262   -9.433951 C.3        1 UNL1     -0.0327
     35 O         0.453531   -2.897276   -6.429518 O.2        1 UNL1     -0.4528
     36 C         -1.585326   -2.95767   -3.228346 C.3        1 UNL1     0.0854
     37 C         -1.113671   -2.720794   -1.742091 C.3        1 UNL1     0.0236
     38 C         -1.909528   -1.57211   -0.955401 C.3        1 UNL1     0.1131
     39 C         -2.080373   -0.143757   -1.613345 C.3        1 UNL1     0.0200
     40 C         -0.795198   0.591986   -2.381098 C.3        1 UNL1     0.0661
     41 C         0.7665   0.779688   -1.745899 C.3        1 UNL1     0.0091
     42 C         2.397347   0.806984   -2.585537 C.3        1 UNL1     0.0661
     43 C         7.324503   -4.849066   -7.030941 C.2        1 UNL1     0.2131
     44 O         7.966572   -5.772516   -7.49755 O.2        1 UNL1     -0.2851
     45 O         6.005978   -6.022553   -9.210231 O.3        1 UNL1     -0.5056
     46 O         2.81128   -2.183118   -5.047334 O.2        1 UNL1     -0.2836
     47 C         2.997307   2.308243   -4.70782 C.3        1 UNL1     -0.0566
     48 O         2.871237   2.018525   -1.873698 O.3        1 UNL1     -0.3909
     49 C         0.90998   -0.111224   -0.532151 C.3        1 UNL1     -0.0577
     50 O         -0.721389   0.188003   -3.733531 O.3        1 UNL1     -0.3910
     51 O         -2.515193   -2.027197   -3.735294 O.3        1 UNL1     -0.3753
     52 C         0.428634   -2.92232   -1.581993 C.3        1 UNL1     -0.0564
     53 O         -1.69518   -1.602238   0.529683 O.3        1 UNL1     -0.4608
     54 C         -1.595013   -0.502434   1.341056 C.2        1 UNL1     0.3042
     55 O         -2.464915   0.336151   1.573186 O.2        1 UNL1     -0.2512
     56 C         -0.270842   -0.390506   2.041596 C.3        1 UNL1     0.0332
     57 C         -3.501154   -0.117723   -2.347427 C.3        1 UNL1     -0.0567
     58 C         1.29115   -5.093058   -5.327571 C.3        1 UNL1     0.0210
     59 C         -3.839047   -2.532738   -3.901744 C.3        1 UNL1     0.0372
     60 C         -0.487439   -3.05572   -4.228442 C.2        1 UNL1     -0.0208
     61 C         -0.366609   -2.503475   -5.436403 C.2        1 UNL1     0.0882
     62 H         2.975023   0.172063   -4.564449 H        1 UNL1     0.0365
     63 H         4.659744   -0.348287   -5.594584 H        1 UNL1     0.0576
     64 H         7.094398   1.283977   -4.643295 H        1 UNL1     0.0615
     65 H         6.770466   -1.058765   -6.684003 H        1 UNL1     0.0622
     66 H         -2.066357   -3.945778   -3.211116 H        1 UNL1     0.0645
     67 H         -1.449064   -3.626122   -1.206877 H        1 UNL1     0.0362
     68 H         -2.917245   -2.014856   -0.953415 H        1 UNL1     0.0741
     69 H         -2.333069   0.568169   -0.838932 H        1 UNL1     0.0359
     70 H         -1.168897   1.632958   -2.423369 H        1 UNL1     0.0600
     71 H         0.664308   1.776073   -1.272897 H        1 UNL1     0.0348
     72 H         1.651027   1.015639   -3.365783 H        1 UNL1     0.0602
     73 H         0.218128   -3.779133   -3.902717 H        1 UNL1     0.0628
     74 H         -1.012931   -1.713717   -5.820834 H        1 UNL1     0.1022
     75 H         10.49521   0.577344   -6.217866 H        1 UNL1     0.0279
     76 H         10.64132   -0.680373   -5.055928 H        1 UNL1     0.0279
     77 H         10.988943   -0.954198   -6.810772 H        1 UNL1     0.0279
     78 H         9.569974   -3.079485   -5.414279 H        1 UNL1     0.1553
     79 H         8.539994   -2.292449   -3.915633 H        1 UNL1     0.1484
     80 H         5.782851   -3.321502   -1.51174 H        1 UNL1     0.0317
     81 H         6.451168   -4.414403   -2.715419 H        1 UNL1     0.0317
     82 H         8.767486   -3.54227   -2.305836 H        1 UNL1     0.0428
     83 H         8.012584   -4.164315   -0.855014 H        1 UNL1     0.0428
     84 H         7.98374   0.060914   -1.354758 H        1 UNL1     0.0428
     85 H         8.77067   -0.853832   -2.592944 H        1 UNL1     0.0428
     86 H         6.442662   -0.08748   -3.059783 H        1 UNL1     0.0317
     87 H         5.78924   -0.947831   -1.742518 H        1 UNL1     0.0317
     88 H         10.108205   -2.390151   -0.573364 H        1 UNL1     0.0429
     89 H         9.469328   -0.939888   0.204329 H        1 UNL1     0.0429
     90 H         7.979004   -3.286029   1.123903 H        1 UNL1     0.0308
     91 H         10.984255   -3.628863   0.947762 H        1 UNL1     0.0233
     92 H         10.152882   -4.180754   2.424153 H        1 UNL1     0.0233
     93 H         9.729005   -4.859269   0.867057 H        1 UNL1     0.0233
     94 H         7.865821   -1.664662   2.654011 H        1 UNL1     0.0233
     95 H         9.32328   -2.440192   3.293303 H        1 UNL1     0.0233
     96 H         9.463735   -0.993407   2.268083 H        1 UNL1     0.0233
     97 H         2.308778   -6.723038   -8.916988 H        1 UNL1     0.0280
     98 H         2.516721   -5.540683   -10.18031 H        1 UNL1     0.0280
     99 H         3.741102   -6.825594   -9.957545 H        1 UNL1     0.0280
     100 H         6.736367   -5.541569   -9.557806 H        1 UNL1     0.2922
     101 H         3.497049   3.159757   -4.246476 H        1 UNL1     0.0236
     102 H         1.912423   2.400392   -4.668837 H        1 UNL1     0.0236
     103 H         3.247428   2.383763   -5.779235 H        1 UNL1     0.0236
     104 H         2.131882   2.346542   -1.32531 H        1 UNL1     0.2098
     105 H         1.034261   -1.166507   -0.761809 H        1 UNL1     0.0234
     106 H         1.666791   0.211499   0.182701 H        1 UNL1     0.0234
     107 H         0.0   0.0   0.0 H        1 UNL1     0.0234
     108 H         0.156252   0.454973   -4.068557 H        1 UNL1     0.2098
     109 H         0.744438   -3.94163   -1.844649 H        1 UNL1     0.0234
     110 H         1.01895   -2.197332   -2.152661 H        1 UNL1     0.0234
     111 H         0.751106   -2.769571   -0.543424 H        1 UNL1     0.0234
     112 H         0.059734   0.652577   2.048133 H        1 UNL1     0.0342
     113 H         -0.306473   -0.795411   3.051857 H        1 UNL1     0.0342
     114 H         0.467552   -0.974259   1.474876 H        1 UNL1     0.0342
     115 H         -4.218963   0.529599   -1.825017 H        1 UNL1     0.0234
     116 H         -3.457626   0.212367   -3.387232 H        1 UNL1     0.0234
     117 H         -4.028551   -1.086752   -2.319533 H        1 UNL1     0.0234
     118 H         0.235773   -5.219194   -5.02878 H        1 UNL1     0.0309
     119 H         1.653221   -6.028035   -5.766803 H        1 UNL1     0.0309
     120 H         1.813417   -4.985353   -4.370626 H        1 UNL1     0.0309
     121 H         -4.242315   -2.733878   -2.909638 H        1 UNL1     0.0524
     122 H         -4.506963   -1.803702   -4.39004 H        1 UNL1     0.0524
     123 H         -3.821644   -3.44499   -4.491309 H        1 UNL1     0.0524
@<TRIPOS>BOND
     1     1     2    1
     2     1    42    1
     3     2     3    2
     4     3     4    1
     5     4     5    2
     6     5     7    1
     7     6    75    1
     8     6    76    1
     9     6    77    1
    10     7     9   am
    11     9    10    1
    12    10    11    2
    13    10    43    1
    14    11    14    1
    15    11    15    1
    16    12    13   ar
    17    12    27   ar
    18    12    43    1
    19    13    14    1
    20    13    30   ar
    21    14    17    2
    22    15    16    1
    23    16    17    1
    24    16    18    1
    25    16    22    1
    26    18    19    1
    27    19    20    1
    28    20    21    1
    29    21    22    1
    30    23    24    1
    31    23    88    1
    32    23    89    1
    33    24    25    1
    34    24    26    1
    35    24    90    1
    36    25    91    1
    37    25    92    1
    38    25    93    1
    39    26    94    1
    40    26    95    1
    41    26    96    1
    42    27    28   ar
    43    28    29   ar
    44    29    30   ar
    45    29    31    1
    46    30    33    1
    47    31    32    1
    48    32    33    1
    49    32    35    1
    50    34    97    1
    51    34    98    1
    52    34    99    1
    53    35    61    1
    54    36    37    1
    55    36    60    1
    56    37    38    1
    57    38    39    1
    58    39    40    1
    59    40    41    1
    60    41    42    1
    61    45   100    1
    62    47   101    1
    63    47   102    1
    64    47   103    1
    65    48   104    1
    66    49   105    1
    67    49   106    1
    68    49   107    1
    69    50   108    1
    70    51    59    1
    71    52   109    1
    72    52   110    1
    73    52   111    1
    74    53    54    1
    75    54    55    2
    76    54    56    1
    77    56   112    1
    78    56   113    1
    79    56   114    1
    80    57   115    1
    81    57   116    1
    82    57   117    1
    83    58   118    1
    84    58   119    1
    85    58   120    1
    86    59   121    1
    87    59   122    1
    88    59   123    1
    89    60    61    2
    90     1    47    1
    91     1    62    1
    92     2    63    1
    93     3    64    1
    94     4    65    1
    95     5     6    1
    96     7     8    2
    97     9    78    1
    98    15    79    1
    99    18    80    1
   100    18    81    1
   101    19    82    1
   102    19    83    1
   103    20    23    1
   104    21    84    1
   105    21    85    1
   106    22    86    1
   107    22    87    1
   108    27    45    1
   109    28    34    1
   110    32    58    1
   111    33    46    2
   112    36    51    1
   113    36    66    1
   114    37    52    1
   115    37    67    1
   116    38    53    1
   117    38    68    1
   118    42    48    1
   119    42    72    1
   120    43    44    2
   121    60    73    1
   122    61    74    1
   123    39    69    1
   124    39    57    1
   125    40    70    1
   126    40    50    1
   127    41    71    1
   128    41    49    1
