@<TRIPOS>MOLECULE
*****
 123 128 0 0 0
SMALL
GASTEIGER

@<TRIPOS>ATOM
     1 C         -1.271151   4.007841   0.540728 C.3        1 UNL1     0.0009
     2 C         -2.17065   4.722889   1.995598 C.2        1 UNL1     -0.0787
     3 C         -3.388599   5.224014   2.596863 C.2        1 UNL1     -0.0649
     4 C         -3.640133   5.689278   4.205159 C.2        1 UNL1     -0.0542
     5 C         -4.613347   5.918488   5.20885 C.2        1 UNL1     0.0115
     6 C         -6.138203   6.05383   5.473085 C.3        1 UNL1     -0.0348
     7 C         -4.149837   5.960638   6.7452 C.2        1 UNL1     0.2441
     8 O         -4.007371   7.003343   7.368897 O.2        1 UNL1     -0.2702
     9 N         -4.171121   4.717479   7.401136 N.am        1 UNL1     -0.2772
     10 C         -2.973561   4.062438   7.227666 C.2        1 UNL1     0.1049
     11 C         -2.835714   3.39074   6.098932 C.2        1 UNL1     0.0801
     12 C         -0.497463   4.380793   7.385543 C.ar        1 UNL1     0.0753
     13 C         -0.421829   3.833852   6.065034 C.ar        1 UNL1     0.0305
     14 C         -1.576207   3.199876   5.432155 C.2        1 UNL1     0.0924
     15 N         -3.751663   3.062586   5.171634 N.pl3        1 UNL1     -0.3170
     16 C         -3.121875   2.181345   4.224514 C.3        1 UNL1     0.1275
     17 N         -1.661563   2.559752   4.26945 N.2        1 UNL1     -0.2557
     18 C         -3.210891   0.768374   4.7931 C.3        1 UNL1     0.0016
     19 C         -4.670395   0.448291   5.074142 C.3        1 UNL1     0.0026
     20 N         -5.421732   0.561404   3.831675 N.3        1 UNL1     -0.3018
     21 C         -5.346294   1.868762   3.176318 C.3        1 UNL1     0.0026
     22 C         -3.872006   2.167977   2.899119 C.3        1 UNL1     0.0016
     23 C         -6.751435   -0.007994   3.922902 C.3        1 UNL1     0.0012
     24 C         -6.942075   -0.717542   5.2727 C.3        1 UNL1     -0.0339
     25 C         -7.850546   -1.950504   5.136532 C.3        1 UNL1     -0.0615
     26 C         -5.591695   -1.08089   5.86535 C.3        1 UNL1     -0.0615
     27 C         0.635436   4.874171   8.028378 C.ar        1 UNL1     0.1347
     28 C         1.900482   4.837982   7.469452 C.ar        1 UNL1     0.0342
     29 C         1.942747   4.34005   6.149815 C.ar        1 UNL1     0.1435
     30 C         0.810274   3.875729   5.479642 C.ar        1 UNL1     0.0774
     31 O         3.115257   4.138835   5.509707 O.3        1 UNL1     -0.4436
     32 C         2.798117   3.221864   4.451662 C.3        1 UNL1     0.3143
     33 C         1.312366   3.395153   4.209321 C.2        1 UNL1     0.2504
     34 C         3.190881   5.113844   8.189779 C.3        1 UNL1     -0.0327
     35 O         3.46967   3.68293   3.272812 O.2        1 UNL1     -0.4528
     36 C         4.220395   0.578685   1.221432 C.3        1 UNL1     0.0854
     37 C         3.227101   -0.514992   0.669381 C.3        1 UNL1     0.0236
     38 C         3.305345   -0.761847   -0.913238 C.3        1 UNL1     0.1131
     39 C         3.226784   0.46833   -1.904582 C.3        1 UNL1     0.0200
     40 C         2.112482   1.684347   -1.655442 C.3        1 UNL1     0.0661
     41 C         0.454104   1.469354   -1.370543 C.3        1 UNL1     0.0091
     42 C         -0.718729   2.458883   -0.365207 C.3        1 UNL1     0.0661
     43 C         -1.806159   4.323448   8.082886 C.2        1 UNL1     0.2131
     44 O         -1.92686   4.379315   9.293277 O.2        1 UNL1     -0.2851
     45 O         0.467577   5.431168   9.294481 O.3        1 UNL1     -0.5056
     46 O         0.687419   3.20152   3.190596 O.2        1 UNL1     -0.2836
     47 C         -1.011441   5.105849   -0.525532 C.3        1 UNL1     -0.0566
     48 O         -1.761533   2.503574   -1.418619 O.3        1 UNL1     -0.3909
     49 C         0.200074   0.015304   -1.040844 C.3        1 UNL1     -0.0577
     50 O         2.629703   2.666498   -0.780465 O.3        1 UNL1     -0.3910
     51 O         4.921714   1.320791   0.249392 O.3        1 UNL1     -0.3753
     52 C         1.868792   -0.511368   1.443934 C.3        1 UNL1     -0.0564
     53 O         2.62509   -2.023265   -1.358665 O.3        1 UNL1     -0.4608
     54 C         1.909927   -2.174267   -2.517833 C.2        1 UNL1     0.3042
     55 O         0.686106   -2.194649   -2.643077 O.2        1 UNL1     -0.2512
     56 C         2.768883   -2.265026   -3.746926 C.3        1 UNL1     0.0332
     57 C         4.72587   0.893563   -2.265266 C.3        1 UNL1     -0.0567
     58 C         3.049939   1.802858   5.012497 C.3        1 UNL1     0.0210
     59 C         6.309527   1.007245   0.142007 C.3        1 UNL1     0.0372
     60 C         3.613943   1.563455   2.158237 C.2        1 UNL1     -0.0208
     61 C         3.738607   2.889972   2.217882 C.2        1 UNL1     0.0882
     62 H         -0.364712   3.947599   1.155097 H        1 UNL1     0.0365
     63 H         -1.348146   4.845301   2.703392 H        1 UNL1     0.0576
     64 H         -4.34384   5.190423   2.068192 H        1 UNL1     0.0615
     65 H         -2.629434   5.768311   4.614703 H        1 UNL1     0.0622
     66 H         4.953629   0.012322   1.812742 H        1 UNL1     0.0645
     67 H         3.630708   -1.465313   1.059958 H        1 UNL1     0.0362
     68 H         4.338542   -1.133387   -0.990596 H        1 UNL1     0.0741
     69 H         2.965382   0.105353   -2.889633 H        1 UNL1     0.0359
     70 H         2.129177   2.165415   -2.652114 H        1 UNL1     0.0600
     71 H         0.070686   1.526812   -2.408158 H        1 UNL1     0.0348
     72 H         0.139867   3.116541   -0.564243 H        1 UNL1     0.0602
     73 H         3.10712   1.042768   2.932358 H        1 UNL1     0.0628
     74 H         4.191657   3.502466   1.437604 H        1 UNL1     0.1022
     75 H         -6.585244   6.826572   4.802221 H        1 UNL1     0.0279
     76 H         -6.747093   5.178084   5.260035 H        1 UNL1     0.0279
     77 H         -6.362391   6.472202   6.465257 H        1 UNL1     0.0279
     78 H         -4.901292   4.132031   7.000913 H        1 UNL1     0.1553
     79 H         -4.740582   3.060652   5.341834 H        1 UNL1     0.1484
     80 H         -2.778277   0.064751   4.071624 H        1 UNL1     0.0317
     81 H         -2.620725   0.678206   5.711373 H        1 UNL1     0.0317
     82 H         -5.088938   1.104979   5.850991 H        1 UNL1     0.0428
     83 H         -4.710775   -0.562788   5.480516 H        1 UNL1     0.0428
     84 H         -5.852554   1.903188   2.206613 H        1 UNL1     0.0428
     85 H         -5.844922   2.650762   3.765522 H        1 UNL1     0.0428
     86 H         -3.864964   3.062493   2.304326 H        1 UNL1     0.0317
     87 H         -3.456565   1.410527   2.223267 H        1 UNL1     0.0317
     88 H         -7.47921   0.810975   3.852713 H        1 UNL1     0.0429
     89 H         -6.951892   -0.689009   3.085758 H        1 UNL1     0.0429
     90 H         -7.403122   -0.020812   5.982781 H        1 UNL1     0.0308
     91 H         -7.567387   -2.559752   4.27297 H        1 UNL1     0.0233
     92 H         -7.805921   -2.564766   6.038918 H        1 UNL1     0.0233
     93 H         -8.904874   -1.679679   5.002807 H        1 UNL1     0.0233
     94 H         -5.703753   -1.895143   6.589415 H        1 UNL1     0.0233
     95 H         -4.916782   -1.422555   5.07559 H        1 UNL1     0.0233
     96 H         -5.13616   -0.226547   6.373831 H        1 UNL1     0.0233
     97 H         3.869839   4.267379   8.148036 H        1 UNL1     0.0280
     98 H         3.737112   5.959155   7.751218 H        1 UNL1     0.0280
     99 H         2.981901   5.337312   9.248781 H        1 UNL1     0.0280
     100 H         -0.327124   5.179005   9.730928 H        1 UNL1     0.2922
     101 H         -1.881844   5.201533   -1.174301 H        1 UNL1     0.0236
     102 H         -0.094815   4.944978   -1.092013 H        1 UNL1     0.0236
     103 H         -0.889778   6.103477   -0.071518 H        1 UNL1     0.0236
     104 H         -1.469012   1.922777   -2.148055 H        1 UNL1     0.2098
     105 H         -0.65681   -0.417759   -1.550763 H        1 UNL1     0.0234
     106 H         1.069384   -0.633837   -1.144977 H        1 UNL1     0.0234
     107 H         0.0   -0.0   0.0 H        1 UNL1     0.0234
     108 H         1.953766   3.366565   -0.698102 H        1 UNL1     0.2098
     109 H         1.999196   -0.728113   2.513386 H        1 UNL1     0.0234
     110 H         1.307977   0.421944   1.324948 H        1 UNL1     0.0234
     111 H         1.185042   -1.282879   1.065512 H        1 UNL1     0.0234
     112 H         2.192007   -1.965211   -4.627079 H        1 UNL1     0.0342
     113 H         3.67833   -1.673069   -3.65562 H        1 UNL1     0.0342
     114 H         3.066605   -3.314131   -3.880737 H        1 UNL1     0.0342
     115 H         4.809143   1.260548   -3.297533 H        1 UNL1     0.0234
     116 H         5.13938   1.662083   -1.609191 H        1 UNL1     0.0234
     117 H         5.431567   0.045262   -2.283107 H        1 UNL1     0.0234
     118 H         3.926413   1.321548   4.544372 H        1 UNL1     0.0309
     119 H         3.17053   1.785987   6.100327 H        1 UNL1     0.0309
     120 H         2.231355   1.110508   4.787378 H        1 UNL1     0.0309
     121 H         6.531433   0.850543   -0.913246 H        1 UNL1     0.0524
     122 H         6.952878   1.829054   0.498051 H        1 UNL1     0.0524
     123 H         6.537146   0.10978   0.710197 H        1 UNL1     0.0524
@<TRIPOS>BOND
     1     1     2    1
     2     1    42    1
     3     2     3    2
     4     3     4    1
     5     4     5    2
     6     5     7    1
     7     6    75    1
     8     6    76    1
     9     6    77    1
    10     7     9   am
    11     9    10    1
    12    10    11    2
    13    10    43    1
    14    11    14    1
    15    11    15    1
    16    12    13   ar
    17    12    27   ar
    18    12    43    1
    19    13    14    1
    20    13    30   ar
    21    14    17    2
    22    15    16    1
    23    16    17    1
    24    16    18    1
    25    16    22    1
    26    18    19    1
    27    19    20    1
    28    20    21    1
    29    21    22    1
    30    23    24    1
    31    23    88    1
    32    23    89    1
    33    24    25    1
    34    24    26    1
    35    24    90    1
    36    25    91    1
    37    25    92    1
    38    25    93    1
    39    26    94    1
    40    26    95    1
    41    26    96    1
    42    27    28   ar
    43    28    29   ar
    44    29    30   ar
    45    29    31    1
    46    30    33    1
    47    31    32    1
    48    32    33    1
    49    32    35    1
    50    34    97    1
    51    34    98    1
    52    34    99    1
    53    35    61    1
    54    36    37    1
    55    36    60    1
    56    37    38    1
    57    38    39    1
    58    39    40    1
    59    40    41    1
    60    41    42    1
    61    45   100    1
    62    47   101    1
    63    47   102    1
    64    47   103    1
    65    48   104    1
    66    49   105    1
    67    49   106    1
    68    49   107    1
    69    50   108    1
    70    51    59    1
    71    52   109    1
    72    52   110    1
    73    52   111    1
    74    53    54    1
    75    54    55    2
    76    54    56    1
    77    56   112    1
    78    56   113    1
    79    56   114    1
    80    57   115    1
    81    57   116    1
    82    57   117    1
    83    58   118    1
    84    58   119    1
    85    58   120    1
    86    59   121    1
    87    59   122    1
    88    59   123    1
    89    60    61    2
    90     1    47    1
    91     1    62    1
    92     2    63    1
    93     3    64    1
    94     4    65    1
    95     5     6    1
    96     7     8    2
    97     9    78    1
    98    15    79    1
    99    18    80    1
   100    18    81    1
   101    19    82    1
   102    19    83    1
   103    20    23    1
   104    21    84    1
   105    21    85    1
   106    22    86    1
   107    22    87    1
   108    27    45    1
   109    28    34    1
   110    32    58    1
   111    33    46    2
   112    36    51    1
   113    36    66    1
   114    37    52    1
   115    37    67    1
   116    38    53    1
   117    38    68    1
   118    42    48    1
   119    42    72    1
   120    43    44    2
   121    60    73    1
   122    61    74    1
   123    39    69    1
   124    39    57    1
   125    40    70    1
   126    40    50    1
   127    41    71    1
   128    41    49    1
