@<TRIPOS>MOLECULE
*****
 123 128 0 0 0
SMALL
GASTEIGER

@<TRIPOS>ATOM
     1 C         -1.195698   -3.92728   -0.646038 C.3        1 UNL1     0.0009
     2 C         -0.114744   -5.431017   -0.731774 C.2        1 UNL1     -0.0787
     3 C         0.583465   -6.433373   -1.508841 C.2        1 UNL1     -0.0649
     4 C         1.633524   -7.638137   -0.950023 C.2        1 UNL1     -0.0542
     5 C         2.66744   -8.53649   -1.312042 C.2        1 UNL1     0.0115
     6 C         3.438935   -9.145449   -2.515075 C.3        1 UNL1     -0.0348
     7 C         3.58263   -9.173653   -0.157297 C.2        1 UNL1     0.2441
     8 O         3.43588   -10.31659   0.253416 O.2        1 UNL1     -0.2702
     9 N         4.727604   -8.425294   0.166965 N.am        1 UNL1     -0.2772
     10 C         4.434528   -7.495679   1.138172 C.2        1 UNL1     0.1049
     11 C         3.894959   -6.365698   0.718374 C.2        1 UNL1     0.0801
     12 C         3.332897   -7.237769   3.369142 C.ar        1 UNL1     0.0753
     13 C         2.612774   -6.140008   2.799096 C.ar        1 UNL1     0.0305
     14 C         2.968089   -5.586933   1.49414 C.2        1 UNL1     0.0924
     15 N         3.771381   -5.87816   -0.528046 N.pl3        1 UNL1     -0.3170
     16 C         3.26687   -4.53452   -0.426289 C.3        1 UNL1     0.1275
     17 N         2.481655   -4.52234   0.862514 N.2        1 UNL1     -0.2557
     18 C         4.465148   -3.617467   -0.200795 C.3        1 UNL1     0.0016
     19 C         5.460068   -3.830606   -1.330527 C.3        1 UNL1     0.0026
     20 N         4.802613   -3.532228   -2.59534 N.3        1 UNL1     -0.3018
     21 C         3.601418   -4.32234   -2.87323 C.3        1 UNL1     0.0026
     22 C         2.613998   -4.089625   -1.728355 C.3        1 UNL1     0.0016
     23 C         5.733017   -3.413316   -3.700262 C.3        1 UNL1     0.0012
     24 C         7.182322   -3.483067   -3.193895 C.3        1 UNL1     -0.0339
     25 C         7.818203   -2.085416   -3.114624 C.3        1 UNL1     -0.0615
     26 C         7.232086   -4.19665   -1.854081 C.3        1 UNL1     -0.0615
     27 C         3.067763   -7.680995   4.662731 C.ar        1 UNL1     0.1347
     28 C         2.13706   -7.082691   5.493319 C.ar        1 UNL1     0.0342
     29 C         1.406056   -6.035177   4.893728 C.ar        1 UNL1     0.1435
     30 C         1.635595   -5.603881   3.586626 C.ar        1 UNL1     0.0774
     31 O         0.541232   -5.281156   5.606847 O.3        1 UNL1     -0.4436
     32 C         0.375605   -4.085888   4.829174 C.3        1 UNL1     0.3143
     33 C         0.736667   -4.482207   3.411861 C.2        1 UNL1     0.2504
     34 C         1.976295   -7.338434   6.966021 C.3        1 UNL1     -0.0327
     35 O         -1.021421   -3.767189   4.830204 O.2        1 UNL1     -0.4528
     36 C         -1.226956   0.011678   4.536932 C.3        1 UNL1     0.0854
     37 C         -0.639363   0.957746   3.420146 C.3        1 UNL1     0.0236
     38 C         -1.711399   1.922477   2.718877 C.3        1 UNL1     0.1131
     39 C         -3.054761   1.316766   2.143758 C.3        1 UNL1     0.0200
     40 C         -3.035278   -0.105362   1.272202 C.3        1 UNL1     0.0661
     41 C         -2.00817   -0.45814   -0.03095 C.3        1 UNL1     0.0091
     42 C         -1.2869   -2.053127   -0.579756 C.3        1 UNL1     0.0661
     43 C         4.433343   -7.831388   2.569833 C.2        1 UNL1     0.2131
     44 O         5.348767   -8.470851   3.055449 O.2        1 UNL1     -0.2851
     45 O         3.781607   -8.784467   5.125564 O.3        1 UNL1     -0.5056
     46 O         0.351527   -3.995916   2.372129 O.2        1 UNL1     -0.2836
     47 C         -2.668688   -4.303363   -0.960435 C.3        1 UNL1     -0.0566
     48 O         -1.645182   -1.855262   -2.005098 O.3        1 UNL1     -0.3909
     49 C         -0.894635   0.564769   -0.06545 C.3        1 UNL1     -0.0577
     50 O         -3.123905   -1.222369   2.133691 O.3        1 UNL1     -0.3910
     51 O         -2.6313   0.002233   4.660059 O.3        1 UNL1     -0.3753
     52 C         0.507177   0.264268   2.614241 C.3        1 UNL1     -0.0564
     53 O         -1.090064   3.037948   1.930211 O.3        1 UNL1     -0.4608
     54 C         -1.332802   3.308779   0.608978 C.2        1 UNL1     0.3042
     55 O         -1.462714   4.414318   0.084816 O.2        1 UNL1     -0.2512
     56 C         -1.380578   2.082462   -0.257381 C.3        1 UNL1     0.0332
     57 C         -4.180402   1.487026   3.267199 C.3        1 UNL1     -0.0567
     58 C         1.426617   -3.077185   5.348233 C.3        1 UNL1     0.0210
     59 C         -3.127289   -0.674991   5.813847 C.3        1 UNL1     0.0372
     60 C         -0.794243   -1.409633   4.448645 C.2        1 UNL1     -0.0208
     61 C         -1.498592   -2.536383   4.562975 C.2        1 UNL1     0.0882
     62 H         -1.095453   -3.941028   0.445966 H        1 UNL1     0.0365
     63 H         -0.005659   -5.664109   0.32947 H        1 UNL1     0.0576
     64 H         0.616393   -6.391438   -2.599834 H        1 UNL1     0.0615
     65 H         1.465292   -7.649904   0.130275 H        1 UNL1     0.0622
     66 H         -0.804853   0.397409   5.475594 H        1 UNL1     0.0645
     67 H         -0.024188   1.683476   3.98 H        1 UNL1     0.0362
     68 H         -2.012375   2.526077   3.588706 H        1 UNL1     0.0741
     69 H         -3.480612   2.020015   1.440551 H        1 UNL1     0.0359
     70 H         -4.030283   -0.047657   0.790853 H        1 UNL1     0.0600
     71 H         -2.64144   -0.118088   -0.873738 H        1 UNL1     0.0348
     72 H         -2.14314   -2.311676   0.060026 H        1 UNL1     0.0602
     73 H         0.265345   -1.449401   4.394426 H        1 UNL1     0.0628
     74 H         -2.588027   -2.584995   4.565656 H        1 UNL1     0.1022
     75 H         3.077877   -10.180294   -2.729008 H        1 UNL1     0.0279
     76 H         3.310862   -8.6496   -3.474658 H        1 UNL1     0.0279
     77 H         4.500183   -9.32805   -2.291223 H        1 UNL1     0.0279
     78 H         5.049111   -7.918473   -0.655132 H        1 UNL1     0.1553
     79 H         4.317893   -6.196173   -1.307228 H        1 UNL1     0.1484
     80 H         4.117793   -2.57788   -0.16381 H        1 UNL1     0.0317
     81 H         4.939693   -3.823915   0.764523 H        1 UNL1     0.0317
     82 H         5.866931   -4.852548   -1.32733 H        1 UNL1     0.0428
     83 H         6.307259   -3.168494   -1.149074 H        1 UNL1     0.0428
     84 H         3.082509   -4.024123   -3.789533 H        1 UNL1     0.0428
     85 H         3.838072   -5.383241   -3.033857 H        1 UNL1     0.0428
     86 H         1.702988   -4.573041   -2.028948 H        1 UNL1     0.0317
     87 H         2.335832   -3.029592   -1.683082 H        1 UNL1     0.0317
     88 H         5.560769   -4.25492   -4.383876 H        1 UNL1     0.0429
     89 H         5.557271   -2.493168   -4.272288 H        1 UNL1     0.0429
     90 H         7.774259   -4.097446   -3.882634 H        1 UNL1     0.0308
     91 H         8.858216   -2.101795   -3.454046 H        1 UNL1     0.0233
     92 H         7.255084   -1.370006   -3.718523 H        1 UNL1     0.0233
     93 H         7.823194   -1.686197   -2.093137 H        1 UNL1     0.0233
     94 H         8.215462   -4.06202   -1.390743 H        1 UNL1     0.0233
     95 H         6.481048   -3.776848   -1.179047 H        1 UNL1     0.0233
     96 H         7.046534   -5.268597   -1.96575 H        1 UNL1     0.0233
     97 H         0.961323   -7.628536   7.220782 H        1 UNL1     0.0280
     98 H         2.619549   -8.156054   7.316704 H        1 UNL1     0.0280
     99 H         2.225917   -6.424059   7.528784 H        1 UNL1     0.0280
     100 H         3.414941   -9.617046   4.884752 H        1 UNL1     0.2922
     101 H         -2.816073   -4.341658   -2.03954 H        1 UNL1     0.0236
     102 H         -3.391373   -3.650676   -0.471855 H        1 UNL1     0.0236
     103 H         -2.921731   -5.316988   -0.607271 H        1 UNL1     0.0236
     104 H         -0.864828   -2.096456   -2.541608 H        1 UNL1     0.2098
     105 H         -0.851721   1.151252   -0.979785 H        1 UNL1     0.0234
     106 H         -0.849934   1.218771   0.805302 H        1 UNL1     0.0234
     107 H         0.0   0.0   0.0 H        1 UNL1     0.0234
     108 H         -2.237237   -1.629906   2.172447 H        1 UNL1     0.2098
     109 H         0.906627   -0.617604   3.134292 H        1 UNL1     0.0234
     110 H         0.211181   -0.013182   1.596817 H        1 UNL1     0.0234
     111 H         1.363242   0.936465   2.468465 H        1 UNL1     0.0234
     112 H         -2.361863   1.605595   -0.173577 H        1 UNL1     0.0342
     113 H         -1.141959   2.305396   -1.296229 H        1 UNL1     0.0342
     114 H         -0.628235   1.37198   0.111888 H        1 UNL1     0.0342
     115 H         -4.609691   2.498409   3.26523 H        1 UNL1     0.0234
     116 H         -5.006991   0.779287   3.178284 H        1 UNL1     0.0234
     117 H         -3.787571   1.424274   4.29661 H        1 UNL1     0.0234
     118 H         2.309058   -3.020797   4.687079 H        1 UNL1     0.0309
     119 H         1.021659   -2.070392   5.491688 H        1 UNL1     0.0309
     120 H         1.852518   -3.373058   6.313207 H        1 UNL1     0.0309
     121 H         -2.976037   -1.743033   5.659687 H        1 UNL1     0.0524
     122 H         -2.584281   -0.391771   6.730889 H        1 UNL1     0.0524
     123 H         -4.183796   -0.461787   5.949613 H        1 UNL1     0.0524
@<TRIPOS>BOND
     1     1     2    1
     2     1    42    1
     3     2     3    2
     4     3     4    1
     5     4     5    2
     6     5     7    1
     7     6    75    1
     8     6    76    1
     9     6    77    1
    10     7     9   am
    11     9    10    1
    12    10    11    2
    13    10    43    1
    14    11    14    1
    15    11    15    1
    16    12    13   ar
    17    12    27   ar
    18    12    43    1
    19    13    14    1
    20    13    30   ar
    21    14    17    2
    22    15    16    1
    23    16    17    1
    24    16    18    1
    25    16    22    1
    26    18    19    1
    27    19    20    1
    28    20    21    1
    29    21    22    1
    30    23    24    1
    31    23    88    1
    32    23    89    1
    33    24    25    1
    34    24    26    1
    35    24    90    1
    36    25    91    1
    37    25    92    1
    38    25    93    1
    39    26    94    1
    40    26    95    1
    41    26    96    1
    42    27    28   ar
    43    28    29   ar
    44    29    30   ar
    45    29    31    1
    46    30    33    1
    47    31    32    1
    48    32    33    1
    49    32    35    1
    50    34    97    1
    51    34    98    1
    52    34    99    1
    53    35    61    1
    54    36    37    1
    55    36    60    1
    56    37    38    1
    57    38    39    1
    58    39    40    1
    59    40    41    1
    60    41    42    1
    61    45   100    1
    62    47   101    1
    63    47   102    1
    64    47   103    1
    65    48   104    1
    66    49   105    1
    67    49   106    1
    68    49   107    1
    69    50   108    1
    70    51    59    1
    71    52   109    1
    72    52   110    1
    73    52   111    1
    74    53    54    1
    75    54    55    2
    76    54    56    1
    77    56   112    1
    78    56   113    1
    79    56   114    1
    80    57   115    1
    81    57   116    1
    82    57   117    1
    83    58   118    1
    84    58   119    1
    85    58   120    1
    86    59   121    1
    87    59   122    1
    88    59   123    1
    89    60    61    2
    90     1    47    1
    91     1    62    1
    92     2    63    1
    93     3    64    1
    94     4    65    1
    95     5     6    1
    96     7     8    2
    97     9    78    1
    98    15    79    1
    99    18    80    1
   100    18    81    1
   101    19    82    1
   102    19    83    1
   103    20    23    1
   104    21    84    1
   105    21    85    1
   106    22    86    1
   107    22    87    1
   108    27    45    1
   109    28    34    1
   110    32    58    1
   111    33    46    2
   112    36    51    1
   113    36    66    1
   114    37    52    1
   115    37    67    1
   116    38    53    1
   117    38    68    1
   118    42    48    1
   119    42    72    1
   120    43    44    2
   121    60    73    1
   122    61    74    1
   123    39    69    1
   124    39    57    1
   125    40    70    1
   126    40    50    1
   127    41    71    1
   128    41    49    1
