@<TRIPOS>MOLECULE
*****
 123 128 0 0 0
SMALL
GASTEIGER

@<TRIPOS>ATOM
     1 C         0.708829   5.116727   1.824396 C.3        1 UNL1     0.0009
     2 C         1.349703   6.811087   1.430112 C.2        1 UNL1     -0.0787
     3 C         2.37325   7.827352   1.555022 C.2        1 UNL1     -0.0649
     4 C         2.454903   9.324232   0.768229 C.2        1 UNL1     -0.0542
     5 C         3.307958   10.386143   0.378719 C.2        1 UNL1     0.0115
     6 C         4.733148   10.980308   0.549378 C.3        1 UNL1     -0.0348
     7 C         2.8176   11.395378   -0.769316 C.2        1 UNL1     0.2441
     8 O         2.384741   12.514487   -0.531083 O.2        1 UNL1     -0.2702
     9 N         3.160754   11.011107   -2.077265 N.am        1 UNL1     -0.2772
     10 C         2.189364   10.193846   -2.60812 C.2        1 UNL1     0.1049
     11 C         2.262775   8.915781   -2.283491 C.2        1 UNL1     0.0801
     12 C         -0.283198   10.007616   -2.938405 C.ar        1 UNL1     0.0753
     13 C         -0.179603   8.693209   -2.381439 C.ar        1 UNL1     0.0305
     14 C         1.116602   8.056711   -2.158334 C.2        1 UNL1     0.0924
     15 N         3.252986   8.232148   -1.684613 N.pl3        1 UNL1     -0.3170
     16 C         2.905828   6.836216   -1.717933 C.3        1 UNL1     0.1275
     17 N         1.396994   6.822733   -1.748939 N.2        1 UNL1     -0.2557
     18 C         3.362027   6.288904   -3.06702 C.3        1 UNL1     0.0016
     19 C         4.847312   6.570476   -3.228985 C.3        1 UNL1     0.0026
     20 N         5.566333   5.932923   -2.134652 N.3        1 UNL1     -0.3018
     21 C         5.153662   6.350168   -0.79302 C.3        1 UNL1     0.0026
     22 C         3.659717   6.053979   -0.650552 C.3        1 UNL1     0.0016
     23 C         6.998285   5.884373   -2.353282 C.3        1 UNL1     0.0012
     24 C         7.338613   4.889342   -3.473927 C.3        1 UNL1     -0.0339
     25 C         8.679954   4.18481   -3.212213 C.3        1 UNL1     -0.0615
     26 C         6.206923   3.891007   -3.64535 C.3        1 UNL1     -0.0615
     27 C         -1.520864   10.5596   -3.260298 C.ar        1 UNL1     0.1347
     28 C         -2.716568   9.880521   -3.108001 C.ar        1 UNL1     0.0342
     29 C         -2.59415   8.6071   -2.512538 C.ar        1 UNL1     0.1435
     30 C         -1.36418   8.055698   -2.151499 C.ar        1 UNL1     0.0774
     31 O         -3.654366   7.777719   -2.398179 O.3        1 UNL1     -0.4436
     32 C         -3.078164   6.476283   -2.210749 C.3        1 UNL1     0.3143
     33 C         -1.690049   6.733205   -1.659985 C.2        1 UNL1     0.2504
     34 C         -4.048554   10.305668   -3.660415 C.3        1 UNL1     -0.0327
     35 O         -3.824115   5.825328   -1.17486 O.2        1 UNL1     -0.4528
     36 C         -3.661952   2.113315   -1.951229 C.3        1 UNL1     0.0854
     37 C         -2.397994   1.186296   -2.126074 C.3        1 UNL1     0.0236
     38 C         -2.372579   -0.107555   -1.178947 C.3        1 UNL1     0.1131
     39 C         -2.608952   0.053527   0.376832 C.3        1 UNL1     0.0200
     40 C         -1.871245   1.289367   1.219996 C.3        1 UNL1     0.0661
     41 C         -0.223111   1.686654   1.161472 C.3        1 UNL1     0.0091
     42 C         0.616091   3.310043   1.32195 C.3        1 UNL1     0.0661
     43 C         0.976885   10.728932   -3.245248 C.2        1 UNL1     0.2131
     44 O         1.052021   11.640393   -4.049194 O.2        1 UNL1     -0.2851
     45 O         -1.537264   11.86189   -3.755484 O.3        1 UNL1     -0.5056
     46 O         -1.014372   6.016876   -0.955579 O.2        1 UNL1     -0.2836
     47 C         0.184309   5.064869   3.284592 C.3        1 UNL1     -0.0566
     48 O         1.630102   2.818811   2.286102 O.3        1 UNL1     -0.3909
     49 C         0.408131   0.978153   -0.016261 C.3        1 UNL1     -0.0577
     50 O         -2.653739   2.465442   1.17229 O.3        1 UNL1     -0.3910
     51 O         -4.517092   1.79291   -0.877214 O.3        1 UNL1     -0.3753
     52 C         -1.108328   2.013633   -2.437883 C.3        1 UNL1     -0.0564
     53 O         -1.366736   -1.139321   -1.598546 O.3        1 UNL1     -0.4608
     54 C         -0.612777   -1.906249   -0.749253 C.2        1 UNL1     0.3042
     55 O         0.608025   -1.874595   -0.599327 O.2        1 UNL1     -0.2512
     56 C         -1.42763   -2.831697   0.108812 C.3        1 UNL1     0.0332
     57 C         -4.159106   -0.22032   0.660035 C.3        1 UNL1     -0.0567
     58 C         -2.948183   5.84865   -3.618126 C.3        1 UNL1     0.0210
     59 C         -5.765483   1.215511   -1.256681 C.3        1 UNL1     0.0372
     60 C         -3.365071   3.567825   -1.844357 C.2        1 UNL1     -0.0208
     61 C         -3.845601   4.489015   -1.008148 C.2        1 UNL1     0.0882
     62 H         -0.160343   5.317968   1.186622 H        1 UNL1     0.0365
     63 H         0.50984   7.219882   0.864437 H        1 UNL1     0.0576
     64 H         3.312968   7.632268   2.076538 H        1 UNL1     0.0615
     65 H         1.452055   9.455325   0.352786 H        1 UNL1     0.0622
     66 H         -4.226859   1.988961   -2.885821 H        1 UNL1     0.0645
     67 H         -2.537387   0.727677   -3.120457 H        1 UNL1     0.0362
     68 H         -3.264629   -0.629855   -1.557063 H        1 UNL1     0.0741
     69 H         -2.237999   -0.830256   0.87856 H        1 UNL1     0.0359
     70 H         -1.996285   0.91571   2.25431 H        1 UNL1     0.0600
     71 H         0.15252   1.078292   2.007494 H        1 UNL1     0.0348
     72 H         -0.384074   3.44109   1.759913 H        1 UNL1     0.0602
     73 H         -2.752847   3.860244   -2.66101 H        1 UNL1     0.0628
     74 H         -4.430808   4.266099   -0.115356 H        1 UNL1     0.1022
     75 H         5.019386   11.008757   1.628402 H        1 UNL1     0.0279
     76 H         5.550252   10.416409   0.105049 H        1 UNL1     0.0279
     77 H         4.784133   12.046304   0.28338 H        1 UNL1     0.0279
     78 H         4.030587   10.482696   -2.061428 H        1 UNL1     0.1553
     79 H         4.20159   8.555446   -1.634008 H        1 UNL1     0.1484
     80 H         3.151691   5.213265   -3.106092 H        1 UNL1     0.0317
     81 H         2.798837   6.748377   -3.886381 H        1 UNL1     0.0317
     82 H         5.055634   7.64997   -3.263724 H        1 UNL1     0.0428
     83 H         5.151325   6.173653   -4.198087 H        1 UNL1     0.0428
     84 H         5.652299   5.799189   0.010468 H        1 UNL1     0.0428
     85 H         5.409129   7.400304   -0.594858 H        1 UNL1     0.0428
     86 H         3.42339   6.246129   0.379602 H        1 UNL1     0.0317
     87 H         3.479512   4.977146   -0.755689 H        1 UNL1     0.0317
     88 H         7.330905   6.884384   -2.660913 H        1 UNL1     0.0429
     89 H         7.534779   5.637463   -1.428088 H        1 UNL1     0.0429
     90 H         7.407895   5.429851   -4.42538 H        1 UNL1     0.0308
     91 H         8.750419   3.835216   -2.177842 H        1 UNL1     0.0233
     92 H         8.808398   3.33552   -3.887356 H        1 UNL1     0.0233
     93 H         9.538859   4.84477   -3.38417 H        1 UNL1     0.0233
     94 H         6.107734   3.274325   -2.745516 H        1 UNL1     0.0233
     95 H         5.261899   4.419945   -3.797395 H        1 UNL1     0.0233
     96 H         6.383193   3.230704   -4.499105 H        1 UNL1     0.0233
     97 H         -4.472043   9.557563   -4.323911 H        1 UNL1     0.0280
     98 H         -4.79367   10.462239   -2.869502 H        1 UNL1     0.0280
     99 H         -3.930527   11.243478   -4.227582 H        1 UNL1     0.0280
     100 H         -1.037638   12.479109   -3.250473 H        1 UNL1     0.2922
     101 H         0.499302   4.133943   3.755563 H        1 UNL1     0.0236
     102 H         -0.891897   5.217213   3.359133 H        1 UNL1     0.0236
     103 H         0.624527   5.85845   3.911193 H        1 UNL1     0.0236
     104 H         1.18468   2.191441   2.888577 H        1 UNL1     0.2098
     105 H         0.176557   1.41927   -0.982491 H        1 UNL1     0.0234
     106 H         1.48119   0.810402   0.075009 H        1 UNL1     0.0234
     107 H         0.0   -0.0   0.0 H        1 UNL1     0.0234
     108 H         -2.087913   3.202722   1.472332 H        1 UNL1     0.2098
     109 H         -1.198002   2.588138   -3.370414 H        1 UNL1     0.0234
     110 H         -0.818845   2.683625   -1.62115 H        1 UNL1     0.0234
     111 H         -0.233243   1.363884   -2.572044 H        1 UNL1     0.0234
     112 H         -2.396738   -3.020054   -0.363095 H        1 UNL1     0.0342
     113 H         -0.905586   -3.764832   0.315144 H        1 UNL1     0.0342
     114 H         -1.612508   -2.333978   1.070716 H        1 UNL1     0.0342
     115 H         -4.318158   -0.692671   1.639206 H        1 UNL1     0.0234
     116 H         -4.78226   0.675402   0.62246 H        1 UNL1     0.0234
     117 H         -4.603261   -0.972718   -0.014179 H        1 UNL1     0.0234
     118 H         -3.651314   5.010119   -3.764683 H        1 UNL1     0.0309
     119 H         -3.082939   6.574476   -4.426346 H        1 UNL1     0.0309
     120 H         -1.968055   5.38836   -3.784226 H        1 UNL1     0.0309
     121 H         -6.503894   2.016305   -1.285585 H        1 UNL1     0.0524
     122 H         -5.728464   0.761679   -2.261023 H        1 UNL1     0.0524
     123 H         -6.062832   0.457229   -0.537872 H        1 UNL1     0.0524
@<TRIPOS>BOND
     1     1     2    1
     2     1    42    1
     3     2     3    2
     4     3     4    1
     5     4     5    2
     6     5     7    1
     7     6    75    1
     8     6    76    1
     9     6    77    1
    10     7     9   am
    11     9    10    1
    12    10    11    2
    13    10    43    1
    14    11    14    1
    15    11    15    1
    16    12    13   ar
    17    12    27   ar
    18    12    43    1
    19    13    14    1
    20    13    30   ar
    21    14    17    2
    22    15    16    1
    23    16    17    1
    24    16    18    1
    25    16    22    1
    26    18    19    1
    27    19    20    1
    28    20    21    1
    29    21    22    1
    30    23    24    1
    31    23    88    1
    32    23    89    1
    33    24    25    1
    34    24    26    1
    35    24    90    1
    36    25    91    1
    37    25    92    1
    38    25    93    1
    39    26    94    1
    40    26    95    1
    41    26    96    1
    42    27    28   ar
    43    28    29   ar
    44    29    30   ar
    45    29    31    1
    46    30    33    1
    47    31    32    1
    48    32    33    1
    49    32    35    1
    50    34    97    1
    51    34    98    1
    52    34    99    1
    53    35    61    1
    54    36    37    1
    55    36    60    1
    56    37    38    1
    57    38    39    1
    58    39    40    1
    59    40    41    1
    60    41    42    1
    61    45   100    1
    62    47   101    1
    63    47   102    1
    64    47   103    1
    65    48   104    1
    66    49   105    1
    67    49   106    1
    68    49   107    1
    69    50   108    1
    70    51    59    1
    71    52   109    1
    72    52   110    1
    73    52   111    1
    74    53    54    1
    75    54    55    2
    76    54    56    1
    77    56   112    1
    78    56   113    1
    79    56   114    1
    80    57   115    1
    81    57   116    1
    82    57   117    1
    83    58   118    1
    84    58   119    1
    85    58   120    1
    86    59   121    1
    87    59   122    1
    88    59   123    1
    89    60    61    2
    90     1    47    1
    91     1    62    1
    92     2    63    1
    93     3    64    1
    94     4    65    1
    95     5     6    1
    96     7     8    2
    97     9    78    1
    98    15    79    1
    99    18    80    1
   100    18    81    1
   101    19    82    1
   102    19    83    1
   103    20    23    1
   104    21    84    1
   105    21    85    1
   106    22    86    1
   107    22    87    1
   108    27    45    1
   109    28    34    1
   110    32    58    1
   111    33    46    2
   112    36    51    1
   113    36    66    1
   114    37    52    1
   115    37    67    1
   116    38    53    1
   117    38    68    1
   118    42    48    1
   119    42    72    1
   120    43    44    2
   121    60    73    1
   122    61    74    1
   123    39    69    1
   124    39    57    1
   125    40    70    1
   126    40    50    1
   127    41    71    1
   128    41    49    1
