@<TRIPOS>MOLECULE
*****
 123 128 0 0 0
SMALL
GASTEIGER

@<TRIPOS>ATOM
     1 C         1.382779   -3.043279   4.338853 C.3        1 UNL1     0.0009
     2 C         2.717773   -4.036597   5.156256 C.2        1 UNL1     -0.0787
     3 C         3.310662   -5.316869   5.480961 C.2        1 UNL1     -0.0649
     4 C         4.783954   -5.613601   6.260523 C.2        1 UNL1     -0.0542
     5 C         5.80344   -6.569876   6.49131 C.2        1 UNL1     0.0115
     6 C         6.187791   -8.064576   6.313909 C.3        1 UNL1     -0.0348
     7 C         7.230374   -6.069467   7.030235 C.2        1 UNL1     0.2441
     8 O         7.575962   -6.17861   8.198645 O.2        1 UNL1     -0.2702
     9 N         8.155916   -5.737344   6.025637 N.am        1 UNL1     -0.2772
     10 C         8.014593   -4.418526   5.659484 C.2        1 UNL1     0.1049
     11 C         7.06494   -4.157306   4.779628 C.2        1 UNL1     0.0801
     12 C         7.832848   -2.107499   6.599408 C.ar        1 UNL1     0.0753
     13 C         6.675302   -1.946945   5.773019 C.ar        1 UNL1     0.0305
     14 C         6.332191   -2.920852   4.739175 C.2        1 UNL1     0.0924
     15 N         6.340972   -4.993636   4.016116 N.pl3        1 UNL1     -0.3170
     16 C         5.563921   -4.195623   3.105281 C.3        1 UNL1     0.1275
     17 N         5.365821   -2.884546   3.826083 N.2        1 UNL1     -0.2557
     18 C         6.451616   -3.888067   1.903154 C.3        1 UNL1     0.0016
     19 C         6.951252   -5.199937   1.319245 C.3        1 UNL1     0.0026
     20 N         5.802628   -6.006166   0.929774 N.3        1 UNL1     -0.3018
     21 C         4.857023   -6.302835   2.007822 C.3        1 UNL1     0.0026
     22 C         4.364401   -4.971089   2.576744 C.3        1 UNL1     0.0016
     23 C         6.163063   -7.135634   0.096089 C.3        1 UNL1     0.0012
     24 C         6.602681   -6.658262   -1.296968 C.3        1 UNL1     -0.0339
     25 C         8.132865   -6.544817   -1.39559 C.3        1 UNL1     -0.0615
     26 C         6.040529   -7.580392   -2.364883 C.3        1 UNL1     -0.0615
     27 C         8.220539   -1.117116   7.498828 C.ar        1 UNL1     0.1347
     28 C         7.555518   0.088755   7.631766 C.ar        1 UNL1     0.0342
     29 C         6.390927   0.20435   6.843394 C.ar        1 UNL1     0.1435
     30 C         5.970001   -0.794369   5.964415 C.ar        1 UNL1     0.0774
     31 O         5.695517   1.360741   6.778809 O.3        1 UNL1     -0.4436
     32 C         4.919092   1.250336   5.576374 C.3        1 UNL1     0.3143
     33 C         4.800707   -0.237838   5.316503 C.2        1 UNL1     0.2504
     34 C         8.052155   1.29115   8.385223 C.3        1 UNL1     -0.0327
     35 O         3.601448   1.727849   5.874783 O.2        1 UNL1     -0.4528
     36 C         2.260933   3.177512   2.632934 C.3        1 UNL1     0.0854
     37 C         2.085936   2.482552   1.227968 C.3        1 UNL1     0.0236
     38 C         0.604902   2.556141   0.617339 C.3        1 UNL1     0.1131
     39 C         -0.631422   2.117058   1.501068 C.3        1 UNL1     0.0200
     40 C         -0.556141   0.73499   2.432013 C.3        1 UNL1     0.0661
     41 C         -0.056302   -0.795974   1.899172 C.3        1 UNL1     0.0091
     42 C         0.808957   -2.143513   2.794084 C.3        1 UNL1     0.0661
     43 C         8.658043   -3.325189   6.403083 C.2        1 UNL1     0.2131
     44 O         9.828052   -3.405392   6.730776 O.2        1 UNL1     -0.2851
     45 O         9.332839   -1.371513   8.298521 O.3        1 UNL1     -0.5056
     46 O         3.926458   -0.832578   4.726734 O.2        1 UNL1     -0.2836
     47 C         0.069184   -3.124752   5.162147 C.3        1 UNL1     -0.0566
     48 O         -0.110313   -3.204969   2.317253 O.3        1 UNL1     -0.3909
     49 C         0.627321   -0.646821   0.558311 C.3        1 UNL1     -0.0577
     50 O         0.007083   1.0136   3.698062 O.3        1 UNL1     -0.3910
     51 O         1.074767   3.618907   3.253909 O.3        1 UNL1     -0.3753
     52 C         2.976824   1.204316   1.096132 C.3        1 UNL1     -0.0564
     53 O         0.53909   2.211384   -0.841817 O.3        1 UNL1     -0.4608
     54 C         -0.58949   1.828323   -1.518205 C.2        1 UNL1     0.3042
     55 O         -0.837063   0.719405   -1.990271 O.2        1 UNL1     -0.2512
     56 C         -1.62846   2.909002   -1.615104 C.3        1 UNL1     0.0332
     57 C         -1.236677   3.436254   2.173051 C.3        1 UNL1     -0.0567
     58 C         5.764857   1.88781   4.449503 C.3        1 UNL1     0.0210
     59 C         1.241003   4.713109   4.154438 C.3        1 UNL1     0.0372
     60 C         3.001483   2.374492   3.643828 C.2        1 UNL1     -0.0208
     61 C         2.737571   2.150287   4.931783 C.2        1 UNL1     0.0882
     62 H         1.8955   -2.127675   4.657442 H        1 UNL1     0.0365
     63 H         3.287176   -3.245779   5.649062 H        1 UNL1     0.0576
     64 H         2.907753   -6.251394   5.084182 H        1 UNL1     0.0615
     65 H         5.055282   -4.642482   6.683363 H        1 UNL1     0.0622
     66 H         2.887267   4.057492   2.429495 H        1 UNL1     0.0645
     67 H         2.642132   3.13667   0.534184 H        1 UNL1     0.0362
     68 H         0.507865   3.646357   0.500998 H        1 UNL1     0.0741
     69 H         -1.471959   1.918579   0.849521 H        1 UNL1     0.0359
     70 H         -1.633433   0.583448   2.635819 H        1 UNL1     0.0600
     71 H         -1.032602   -1.224271   1.598578 H        1 UNL1     0.0348
     72 H         0.373296   -1.495932   3.56878 H        1 UNL1     0.0602
     73 H         3.924344   2.054433   3.22773 H        1 UNL1     0.0628
     74 H         1.793062   2.394225   5.419259 H        1 UNL1     0.1022
     75 H         5.375692   -8.617876   5.783448 H        1 UNL1     0.0279
     76 H         7.056557   -8.271712   5.693095 H        1 UNL1     0.0279
     77 H         6.232627   -8.60838   7.268878 H        1 UNL1     0.0279
     78 H         7.981866   -6.305122   5.198949 H        1 UNL1     0.1553
     79 H         6.609971   -5.939585   3.816737 H        1 UNL1     0.1484
     80 H         5.872165   -3.317167   1.167575 H        1 UNL1     0.0317
     81 H         7.298392   -3.256861   2.193326 H        1 UNL1     0.0317
     82 H         7.593677   -5.742671   2.028218 H        1 UNL1     0.0428
     83 H         7.583535   -4.957397   0.464586 H        1 UNL1     0.0428
     84 H         3.964658   -6.840713   1.672885 H        1 UNL1     0.0428
     85 H         5.297297   -6.96344   2.767477 H        1 UNL1     0.0428
     86 H         3.58055   -5.223201   3.266675 H        1 UNL1     0.0317
     87 H         3.843386   -4.400758   1.798052 H        1 UNL1     0.0317
     88 H         7.006531   -7.654537   0.570004 H        1 UNL1     0.0429
     89 H         5.33968   -7.858018   0.025543 H        1 UNL1     0.0429
     90 H         6.166051   -5.671776   -1.492959 H        1 UNL1     0.0308
     91 H         8.618053   -7.497887   -1.164609 H        1 UNL1     0.0233
     92 H         8.432693   -6.222826   -2.395607 H        1 UNL1     0.0233
     93 H         8.542315   -5.802531   -0.699748 H        1 UNL1     0.0233
     94 H         6.502475   -7.362027   -3.333779 H        1 UNL1     0.0233
     95 H         6.261016   -8.62157   -2.113296 H        1 UNL1     0.0233
     96 H         4.957782   -7.462856   -2.463944 H        1 UNL1     0.0233
     97 H         7.371181   2.133068   8.303505 H        1 UNL1     0.0280
     98 H         8.156388   1.092132   9.459831 H        1 UNL1     0.0280
     99 H         9.031859   1.598972   7.984571 H        1 UNL1     0.0280
     100 H         10.004076   -0.713262   8.256468 H        1 UNL1     0.2922
     101 H         -0.691985   -2.494045   4.70336 H        1 UNL1     0.0236
     102 H         0.209794   -2.893994   6.217591 H        1 UNL1     0.0236
     103 H         -0.364012   -4.138863   5.151503 H        1 UNL1     0.0236
     104 H         -0.802887   -3.322423   2.996602 H        1 UNL1     0.2098
     105 H         1.614507   -0.19399   0.605411 H        1 UNL1     0.0234
     106 H         0.657196   -1.5565   -0.041288 H        1 UNL1     0.0234
     107 H         0.0   0.0   -0.0 H        1 UNL1     0.0234
     108 H         0.93636   1.275432   3.550902 H        1 UNL1     0.2098
     109 H         2.749073   0.457013   1.869036 H        1 UNL1     0.0234
     110 H         2.916956   0.73814   0.106769 H        1 UNL1     0.0234
     111 H         4.042774   1.439863   1.215354 H        1 UNL1     0.0234
     112 H         -2.508246   2.532897   -2.146015 H        1 UNL1     0.0342
     113 H         -1.901188   3.30375   -0.637537 H        1 UNL1     0.0342
     114 H         -1.208672   3.736802   -2.203059 H        1 UNL1     0.0342
     115 H         -1.554822   4.169472   1.419153 H        1 UNL1     0.0234
     116 H         -2.088951   3.24918   2.829314 H        1 UNL1     0.0234
     117 H         -0.492746   4.022314   2.739657 H        1 UNL1     0.0234
     118 H         5.658838   2.986461   4.422469 H        1 UNL1     0.0309
     119 H         6.827293   1.631967   4.512578 H        1 UNL1     0.0309
     120 H         5.437053   1.577803   3.451231 H        1 UNL1     0.0309
     121 H         1.877232   4.373951   4.971469 H        1 UNL1     0.0524
     122 H         1.741063   5.573574   3.679486 H        1 UNL1     0.0524
     123 H         0.276711   5.033639   4.53849 H        1 UNL1     0.0524
@<TRIPOS>BOND
     1     1     2    1
     2     1    42    1
     3     2     3    2
     4     3     4    1
     5     4     5    2
     6     5     7    1
     7     6    75    1
     8     6    76    1
     9     6    77    1
    10     7     9   am
    11     9    10    1
    12    10    11    2
    13    10    43    1
    14    11    14    1
    15    11    15    1
    16    12    13   ar
    17    12    27   ar
    18    12    43    1
    19    13    14    1
    20    13    30   ar
    21    14    17    2
    22    15    16    1
    23    16    17    1
    24    16    18    1
    25    16    22    1
    26    18    19    1
    27    19    20    1
    28    20    21    1
    29    21    22    1
    30    23    24    1
    31    23    88    1
    32    23    89    1
    33    24    25    1
    34    24    26    1
    35    24    90    1
    36    25    91    1
    37    25    92    1
    38    25    93    1
    39    26    94    1
    40    26    95    1
    41    26    96    1
    42    27    28   ar
    43    28    29   ar
    44    29    30   ar
    45    29    31    1
    46    30    33    1
    47    31    32    1
    48    32    33    1
    49    32    35    1
    50    34    97    1
    51    34    98    1
    52    34    99    1
    53    35    61    1
    54    36    37    1
    55    36    60    1
    56    37    38    1
    57    38    39    1
    58    39    40    1
    59    40    41    1
    60    41    42    1
    61    45   100    1
    62    47   101    1
    63    47   102    1
    64    47   103    1
    65    48   104    1
    66    49   105    1
    67    49   106    1
    68    49   107    1
    69    50   108    1
    70    51    59    1
    71    52   109    1
    72    52   110    1
    73    52   111    1
    74    53    54    1
    75    54    55    2
    76    54    56    1
    77    56   112    1
    78    56   113    1
    79    56   114    1
    80    57   115    1
    81    57   116    1
    82    57   117    1
    83    58   118    1
    84    58   119    1
    85    58   120    1
    86    59   121    1
    87    59   122    1
    88    59   123    1
    89    60    61    2
    90     1    47    1
    91     1    62    1
    92     2    63    1
    93     3    64    1
    94     4    65    1
    95     5     6    1
    96     7     8    2
    97     9    78    1
    98    15    79    1
    99    18    80    1
   100    18    81    1
   101    19    82    1
   102    19    83    1
   103    20    23    1
   104    21    84    1
   105    21    85    1
   106    22    86    1
   107    22    87    1
   108    27    45    1
   109    28    34    1
   110    32    58    1
   111    33    46    2
   112    36    51    1
   113    36    66    1
   114    37    52    1
   115    37    67    1
   116    38    53    1
   117    38    68    1
   118    42    48    1
   119    42    72    1
   120    43    44    2
   121    60    73    1
   122    61    74    1
   123    39    69    1
   124    39    57    1
   125    40    70    1
   126    40    50    1
   127    41    71    1
   128    41    49    1
