@<TRIPOS>MOLECULE
*****
 123 128 0 0 0
SMALL
GASTEIGER

@<TRIPOS>ATOM
     1 C         5.036778   2.055825   0.64514 C.3        1 UNL1     0.0009
     2 C         6.42261   2.997655   -0.148248 C.2        1 UNL1     -0.0787
     3 C         7.718038   3.019733   -0.794332 C.2        1 UNL1     -0.0649
     4 C         8.513146   4.344463   -1.486612 C.2        1 UNL1     -0.0542
     5 C         9.522702   4.747588   -2.395107 C.2        1 UNL1     0.0115
     6 C         10.706775   4.24084   -3.263728 C.3        1 UNL1     -0.0348
     7 C         9.517386   6.256524   -2.942896 C.2        1 UNL1     0.2441
     8 O         10.272665   7.120765   -2.519616 O.2        1 UNL1     -0.2702
     9 N         8.771505   6.453888   -4.117997 N.am        1 UNL1     -0.2772
     10 C         7.459213   6.733075   -3.812602 C.2        1 UNL1     0.1049
     11 C         6.683143   5.691678   -3.572959 C.2        1 UNL1     0.0801
     12 C         6.02489   8.183777   -2.365013 C.ar        1 UNL1     0.0753
     13 C         5.344526   6.986651   -1.974369 C.ar        1 UNL1     0.0305
     14 C         5.567105   5.719367   -2.66683 C.2        1 UNL1     0.0924
     15 N         6.90585   4.382509   -3.780337 N.pl3        1 UNL1     -0.3170
     16 C         5.679112   3.680174   -3.511836 C.3        1 UNL1     0.1275
     17 N         4.959401   4.547059   -2.507719 N.2        1 UNL1     -0.2557
     18 C         4.843197   3.726297   -4.787305 C.3        1 UNL1     0.0016
     19 C         5.663267   3.144126   -5.927547 C.3        1 UNL1     0.0026
     20 N         6.028563   1.775386   -5.589706 N.3        1 UNL1     -0.3018
     21 C         6.78308   1.622698   -4.344009 C.3        1 UNL1     0.0026
     22 C         5.938853   2.209829   -3.211555 C.3        1 UNL1     0.0016
     23 C         6.54885   1.034789   -6.721722 C.3        1 UNL1     0.0012
     24 C         5.429758   0.740233   -7.732972 C.3        1 UNL1     -0.0339
     25 C         5.635654   1.519378   -9.042398 C.3        1 UNL1     -0.0615
     26 C         5.33274   -0.754956   -7.981521 C.3        1 UNL1     -0.0615
     27 C         5.719215   9.410924   -1.781238 C.ar        1 UNL1     0.1347
     28 C         4.728653   9.571672   -0.828874 C.ar        1 UNL1     0.0342
     29 C         4.105912   8.371732   -0.424522 C.ar        1 UNL1     0.1435
     30 C         4.426874   7.13004   -0.974435 C.ar        1 UNL1     0.0774
     31 O         3.04675   8.375229   0.414031 O.3        1 UNL1     -0.4436
     32 C         2.420206   7.099459   0.212221 C.3        1 UNL1     0.3143
     33 C         3.51185   6.204811   -0.33926 C.2        1 UNL1     0.2504
     34 C         4.175705   10.883062   -0.344513 C.3        1 UNL1     -0.0327
     35 O         2.073163   6.586183   1.504259 O.2        1 UNL1     -0.4528
     36 C         -1.012192   4.43902   0.976656 C.3        1 UNL1     0.0854
     37 C         -1.210223   3.195702   0.026673 C.3        1 UNL1     0.0236
     38 C         -1.727792   1.864132   0.755226 C.3        1 UNL1     0.1131
     39 C         -0.984345   1.337004   2.048165 C.3        1 UNL1     0.0200
     40 C         0.682258   1.311863   2.113281 C.3        1 UNL1     0.0661
     41 C         1.713079   0.661773   0.933281 C.3        1 UNL1     0.0091
     42 C         3.397489   1.170142   0.413928 C.3        1 UNL1     0.0661
     43 C         7.004294   8.090316   -3.476 C.2        1 UNL1     0.2131
     44 O         7.347503   9.042765   -4.152598 O.2        1 UNL1     -0.2851
     45 O         6.459646   10.519883   -2.185479 O.3        1 UNL1     -0.5056
     46 O         3.614643   5.001465   -0.254134 O.2        1 UNL1     -0.2836
     47 C         5.442238   1.600342   2.072767 C.3        1 UNL1     -0.0566
     48 O         3.947676   -0.20649   0.449893 O.3        1 UNL1     -0.3909
     49 C         0.916928   0.417662   -0.329274 C.3        1 UNL1     -0.0577
     50 O         1.185033   2.553999   2.562769 O.3        1 UNL1     -0.3910
     51 O         -1.1427   4.186279   2.357424 O.3        1 UNL1     -0.3753
     52 C         -0.139691   3.157448   -1.112381 C.3        1 UNL1     -0.0564
     53 O         -2.238596   0.819993   -0.194079 O.3        1 UNL1     -0.4608
     54 C         -2.378099   -0.513251   0.090401 C.2        1 UNL1     0.3042
     55 O         -1.684752   -1.441717   -0.323194 O.2        1 UNL1     -0.2512
     56 C         -3.482986   -0.807911   1.064625 C.3        1 UNL1     0.0332
     57 C         -1.77151   1.901417   3.320952 C.3        1 UNL1     -0.0567
     58 C         1.346158   7.307628   -0.880763 C.3        1 UNL1     0.0210
     59 C         -2.330826   4.706252   2.952279 C.3        1 UNL1     0.0372
     60 C         0.27006   5.172203   0.793805 C.2        1 UNL1     -0.0208
     61 C         1.135319   5.638573   1.695232 C.2        1 UNL1     0.0882
     62 H         4.488292   2.998361   0.761337 H        1 UNL1     0.0365
     63 H         6.077795   4.024206   -0.007655 H        1 UNL1     0.0576
     64 H         8.249027   2.098377   -1.043855 H        1 UNL1     0.0615
     65 H         7.954731   5.207451   -1.11391 H        1 UNL1     0.0622
     66 H         -1.80518   5.140682   0.681892 H        1 UNL1     0.0645
     67 H         -2.08702   3.464689   -0.587683 H        1 UNL1     0.0362
     68 H         -2.709656   2.216413   1.106456 H        1 UNL1     0.0741
     69 H         -1.243243   0.297474   2.19902 H        1 UNL1     0.0359
     70 H         0.829288   0.627387   2.970565 H        1 UNL1     0.0600
     71 H         1.825511   -0.369442   1.321753 H        1 UNL1     0.0348
     72 H         3.241272   1.610451   1.409438 H        1 UNL1     0.0602
     73 H         0.388532   5.418094   -0.232231 H        1 UNL1     0.0628
     74 H         1.117405   5.385347   2.755794 H        1 UNL1     0.1022
     75 H         11.50941   3.808778   -2.618644 H        1 UNL1     0.0279
     76 H         10.491245   3.423645   -3.948423 H        1 UNL1     0.0279
     77 H         11.24712   5.057668   -3.764248 H        1 UNL1     0.0279
     78 H         8.781694   5.603013   -4.676552 H        1 UNL1     0.1553
     79 H         7.61002   4.028898   -4.401655 H        1 UNL1     0.1484
     80 H         3.917968   3.159121   -4.629101 H        1 UNL1     0.0317
     81 H         4.544783   4.753536   -5.022636 H        1 UNL1     0.0317
     82 H         6.55579   3.751405   -6.138562 H        1 UNL1     0.0428
     83 H         5.049122   3.188361   -6.827502 H        1 UNL1     0.0428
     84 H         6.975396   0.580009   -4.072669 H        1 UNL1     0.0428
     85 H         7.784646   2.068885   -4.415432 H        1 UNL1     0.0428
     86 H         6.458737   1.962453   -2.304629 H        1 UNL1     0.0317
     87 H         4.995561   1.657286   -3.122151 H        1 UNL1     0.0317
     88 H         7.310547   1.653646   -7.213787 H        1 UNL1     0.0429
     89 H         7.044762   0.110147   -6.399415 H        1 UNL1     0.0429
     90 H         4.466872   1.034835   -7.299067 H        1 UNL1     0.0308
     91 H         6.670883   1.447818   -9.389215 H        1 UNL1     0.0233
     92 H         4.969187   1.145553   -9.823222 H        1 UNL1     0.0233
     93 H         5.409889   2.587037   -8.932992 H        1 UNL1     0.0233
     94 H         4.84264   -0.947142   -8.942095 H        1 UNL1     0.0233
     95 H         6.33402   -1.193013   -8.020324 H        1 UNL1     0.0233
     96 H         4.759424   -1.253827   -7.195134 H        1 UNL1     0.0233
     97 H         3.104855   10.959033   -0.508032 H        1 UNL1     0.0280
     98 H         4.325639   11.022311   0.734091 H        1 UNL1     0.0280
     99 H         4.666815   11.711361   -0.881006 H        1 UNL1     0.0280
     100 H         5.943551   11.271917   -2.41724 H        1 UNL1     0.2922
     101 H         4.637791   1.011685   2.513227 H        1 UNL1     0.0236
     102 H         5.744664   2.425771   2.716341 H        1 UNL1     0.0236
     103 H         6.311097   0.921295   2.059683 H        1 UNL1     0.0236
     104 H         4.283712   -0.366314   1.3535 H        1 UNL1     0.2098
     105 H         0.688426   1.31621   -0.896911 H        1 UNL1     0.0234
     106 H         1.327756   -0.349475   -0.985512 H        1 UNL1     0.0234
     107 H         0.0   -0.0   0.0 H        1 UNL1     0.0234
     108 H         1.086497   3.18984   1.828083 H        1 UNL1     0.2098
     109 H         -0.18655   4.046045   -1.757293 H        1 UNL1     0.0234
     110 H         0.881936   3.029346   -0.738734 H        1 UNL1     0.0234
     111 H         -0.288933   2.297908   -1.779362 H        1 UNL1     0.0234
     112 H         -4.059459   -1.672984   0.723049 H        1 UNL1     0.0342
     113 H         -3.10758   -0.962831   2.075028 H        1 UNL1     0.0342
     114 H         -4.158422   0.058302   1.08964 H        1 UNL1     0.0342
     115 H         -2.845271   1.673986   3.270942 H        1 UNL1     0.0234
     116 H         -1.400088   1.524169   4.275823 H        1 UNL1     0.0234
     117 H         -1.789382   3.003602   3.37395 H        1 UNL1     0.0234
     118 H         0.321985   7.230233   -0.475687 H        1 UNL1     0.0309
     119 H         1.450892   8.25997   -1.410178 H        1 UNL1     0.0309
     120 H         1.37296   6.52837   -1.650272 H        1 UNL1     0.0309
     121 H         -2.12545   4.870488   4.00973 H        1 UNL1     0.0524
     122 H         -2.626978   5.675298   2.517213 H        1 UNL1     0.0524
     123 H         -3.149441   4.00193   2.83441 H        1 UNL1     0.0524
@<TRIPOS>BOND
     1     1     2    1
     2     1    42    1
     3     2     3    2
     4     3     4    1
     5     4     5    2
     6     5     7    1
     7     6    75    1
     8     6    76    1
     9     6    77    1
    10     7     9   am
    11     9    10    1
    12    10    11    2
    13    10    43    1
    14    11    14    1
    15    11    15    1
    16    12    13   ar
    17    12    27   ar
    18    12    43    1
    19    13    14    1
    20    13    30   ar
    21    14    17    2
    22    15    16    1
    23    16    17    1
    24    16    18    1
    25    16    22    1
    26    18    19    1
    27    19    20    1
    28    20    21    1
    29    21    22    1
    30    23    24    1
    31    23    88    1
    32    23    89    1
    33    24    25    1
    34    24    26    1
    35    24    90    1
    36    25    91    1
    37    25    92    1
    38    25    93    1
    39    26    94    1
    40    26    95    1
    41    26    96    1
    42    27    28   ar
    43    28    29   ar
    44    29    30   ar
    45    29    31    1
    46    30    33    1
    47    31    32    1
    48    32    33    1
    49    32    35    1
    50    34    97    1
    51    34    98    1
    52    34    99    1
    53    35    61    1
    54    36    37    1
    55    36    60    1
    56    37    38    1
    57    38    39    1
    58    39    40    1
    59    40    41    1
    60    41    42    1
    61    45   100    1
    62    47   101    1
    63    47   102    1
    64    47   103    1
    65    48   104    1
    66    49   105    1
    67    49   106    1
    68    49   107    1
    69    50   108    1
    70    51    59    1
    71    52   109    1
    72    52   110    1
    73    52   111    1
    74    53    54    1
    75    54    55    2
    76    54    56    1
    77    56   112    1
    78    56   113    1
    79    56   114    1
    80    57   115    1
    81    57   116    1
    82    57   117    1
    83    58   118    1
    84    58   119    1
    85    58   120    1
    86    59   121    1
    87    59   122    1
    88    59   123    1
    89    60    61    2
    90     1    47    1
    91     1    62    1
    92     2    63    1
    93     3    64    1
    94     4    65    1
    95     5     6    1
    96     7     8    2
    97     9    78    1
    98    15    79    1
    99    18    80    1
   100    18    81    1
   101    19    82    1
   102    19    83    1
   103    20    23    1
   104    21    84    1
   105    21    85    1
   106    22    86    1
   107    22    87    1
   108    27    45    1
   109    28    34    1
   110    32    58    1
   111    33    46    2
   112    36    51    1
   113    36    66    1
   114    37    52    1
   115    37    67    1
   116    38    53    1
   117    38    68    1
   118    42    48    1
   119    42    72    1
   120    43    44    2
   121    60    73    1
   122    61    74    1
   123    39    69    1
   124    39    57    1
   125    40    70    1
   126    40    50    1
   127    41    71    1
   128    41    49    1
