@<TRIPOS>MOLECULE
*****
 123 128 0 0 0
SMALL
GASTEIGER

@<TRIPOS>ATOM
     1 C         5.163329   1.76953   0.457501 C.3        1 UNL1     0.0009
     2 C         6.59034   2.583304   -0.40183 C.2        1 UNL1     -0.0787
     3 C         7.86805   2.491863   -1.076472 C.2        1 UNL1     -0.0649
     4 C         8.734485   3.731922   -1.836671 C.2        1 UNL1     -0.0542
     5 C         9.746644   4.030383   -2.78194 C.2        1 UNL1     0.0115
     6 C         10.871769   3.411191   -3.656021 C.3        1 UNL1     -0.0348
     7 C         9.830862   5.51474   -3.387399 C.2        1 UNL1     0.2441
     8 O         10.653473   6.339821   -3.014468 O.2        1 UNL1     -0.2702
     9 N         9.071637   5.719482   -4.55265 N.am        1 UNL1     -0.2772
     10 C         7.789318   6.099799   -4.229638 C.2        1 UNL1     0.1049
     11 C         6.950117   5.124111   -3.932997 C.2        1 UNL1     0.0801
     12 C         6.493166   7.698787   -2.808173 C.ar        1 UNL1     0.0753
     13 C         5.742494   6.566832   -2.356755 C.ar        1 UNL1     0.0305
     14 C         5.861087   5.262408   -3.004416 C.2        1 UNL1     0.0924
     15 N         7.077856   3.795899   -4.094438 N.pl3        1 UNL1     -0.3170
     16 C         5.813008   3.190437   -3.772214 C.3        1 UNL1     0.1275
     17 N         5.178907   4.141594   -2.786851 N.2        1 UNL1     -0.2557
     18 C         4.951212   3.246906   -5.029919 C.3        1 UNL1     0.0016
     19 C         5.701496   2.567607   -6.164474 C.3        1 UNL1     0.0026
     20 N         5.980734   1.190361   -5.78205 N.3        1 UNL1     -0.3018
     21 C         6.753349   1.032177   -4.548189 C.3        1 UNL1     0.0026
     22 C         5.979118   1.7178   -3.421077 C.3        1 UNL1     0.0016
     23 C         6.42142   0.374142   -6.895705 C.3        1 UNL1     0.0012
     24 C         5.26042   0.120339   -7.870087 C.3        1 UNL1     -0.0339
     25 C         5.34278   1.044729   -9.095964 C.3        1 UNL1     -0.0615
     26 C         5.230562   -1.343294   -8.274645 C.3        1 UNL1     -0.0615
     27 C         6.286297   8.964911   -2.265721 C.ar        1 UNL1     0.1347
     28 C         5.332621   9.228901   -1.298838 C.ar        1 UNL1     0.0342
     29 C         4.639563   8.090668   -0.834878 C.ar        1 UNL1     0.1435
     30 C         4.861516   6.810242   -1.343273 C.ar        1 UNL1     0.0774
     31 O         3.603955   8.198413   0.025885 O.3        1 UNL1     -0.4436
     32 C         2.887091   6.962382   -0.112703 C.3        1 UNL1     0.3143
     33 C         3.901334   5.974623   -0.652941 C.2        1 UNL1     0.2504
     34 C         4.882442   10.59241   -0.853548 C.3        1 UNL1     -0.0327
     35 O         2.537579   6.522548   1.205493 O.2        1 UNL1     -0.4528
     36 C         -0.699047   4.575621   0.828912 C.3        1 UNL1     0.0854
     37 C         -1.004628   3.314607   -0.067741 C.3        1 UNL1     0.0236
     38 C         -1.593832   2.049897   0.722887 C.3        1 UNL1     0.1131
     39 C         -0.856645   1.520942   2.018661 C.3        1 UNL1     0.0200
     40 C         0.805454   1.383138   2.048222 C.3        1 UNL1     0.0661
     41 C         1.76033   0.620096   0.871962 C.3        1 UNL1     0.0091
     42 C         3.462274   0.991269   0.296618 C.3        1 UNL1     0.0661
     43 C         7.43642   7.496768   -3.935879 C.2        1 UNL1     0.2131
     44 O         7.827134   8.397497   -4.656134 O.2        1 UNL1     -0.2851
     45 O         7.090532   10.004315   -2.728628 O.3        1 UNL1     -0.5056
     46 O         3.923855   4.771035   -0.523633 O.2        1 UNL1     -0.2836
     47 C         5.571603   1.340342   1.892454 C.3        1 UNL1     -0.0566
     48 O         3.917987   -0.417807   0.373723 O.3        1 UNL1     -0.3909
     49 C         0.91871   0.384955   -0.362493 C.3        1 UNL1     -0.0577
     50 O         1.402643   2.60337   2.438252 O.3        1 UNL1     -0.3910
     51 O         -0.812649   4.383848   2.220942 O.3        1 UNL1     -0.3753
     52 C         0.032593   3.16029   -1.227615 C.3        1 UNL1     -0.0564
     53 O         -2.19776   1.009085   -0.173944 O.3        1 UNL1     -0.4608
     54 C         -2.423707   -0.299121   0.165874 C.2        1 UNL1     0.3042
     55 O         -1.851949   -1.29499   -0.275912 O.2        1 UNL1     -0.2512
     56 C         -3.457039   -0.470924   1.242639 C.3        1 UNL1     0.0332
     57 C         -1.572078   2.185175   3.285596 C.3        1 UNL1     -0.0567
     58 C         1.803309   7.203614   -1.189157 C.3        1 UNL1     0.0210
     59 C         -1.126245   5.560566   2.964486 C.3        1 UNL1     0.0372
     60 C         0.62537   5.211174   0.589846 C.2        1 UNL1     -0.0208
     61 C         1.542235   5.649732   1.453425 C.2        1 UNL1     0.0882
     62 H         4.683425   2.751367   0.54915 H        1 UNL1     0.0365
     63 H         6.319901   3.63573   -0.293512 H        1 UNL1     0.0576
     64 H         8.328684   1.527409   -1.301752 H        1 UNL1     0.0615
     65 H         8.245532   4.644649   -1.485479 H        1 UNL1     0.0622
     66 H         -1.449303   5.31899   0.524666 H        1 UNL1     0.0645
     67 H         -1.875811   3.620579   -0.672705 H        1 UNL1     0.0362
     68 H         -2.540485   2.481951   1.081635 H        1 UNL1     0.0741
     69 H         -1.182081   0.508091   2.215214 H        1 UNL1     0.0359
     70 H         0.926395   0.722382   2.927901 H        1 UNL1     0.0600
     71 H         1.811632   -0.401317   1.297451 H        1 UNL1     0.0348
     72 H         3.360875   1.47791   1.277543 H        1 UNL1     0.0602
     73 H         0.735185   5.410097   -0.447274 H        1 UNL1     0.0628
     74 H         1.53306   5.437829   2.523121 H        1 UNL1     0.1022
     75 H         10.903726   2.302513   -3.52623 H        1 UNL1     0.0279
     76 H         10.763643   3.517944   -4.733045 H        1 UNL1     0.0279
     77 H         11.878653   3.698039   -3.318967 H        1 UNL1     0.0279
     78 H         9.010083   4.849822   -5.077987 H        1 UNL1     0.1553
     79 H         7.740842   3.371696   -4.716881 H        1 UNL1     0.1484
     80 H         3.993599   2.751267   -4.829704 H        1 UNL1     0.0317
     81 H         4.717894   4.282879   -5.298196 H        1 UNL1     0.0317
     82 H         6.627931   3.103528   -6.418282 H        1 UNL1     0.0428
     83 H         5.069952   2.620787   -7.051814 H        1 UNL1     0.0428
     84 H         6.880674   -0.010534   -4.241019 H        1 UNL1     0.0428
     85 H         7.780969   1.405141   -4.658701 H        1 UNL1     0.0428
     86 H         6.502963   1.468876   -2.516858 H        1 UNL1     0.0317
     87 H         5.002804   1.235448   -3.289765 H        1 UNL1     0.0317
     88 H         7.211282   0.92023   -7.427871 H        1 UNL1     0.0429
     89 H         6.860844   -0.569973   -6.548824 H        1 UNL1     0.0429
     90 H         4.311165   0.307979   -7.354411 H        1 UNL1     0.0308
     91 H         6.295083   0.9249   -9.62119 H        1 UNL1     0.0233
     92 H         4.522969   0.841362   -9.788901 H        1 UNL1     0.0233
     93 H         5.259403   2.104506   -8.82623 H        1 UNL1     0.0233
     94 H         4.543909   -1.488783   -9.115583 H        1 UNL1     0.0233
     95 H         6.226546   -1.663216   -8.593438 H        1 UNL1     0.0233
     96 H         4.903449   -1.979372   -7.447378 H        1 UNL1     0.0233
     97 H         4.088131   10.53823   -0.11506 H        1 UNL1     0.0280
     98 H         5.693388   11.162244   -0.381414 H        1 UNL1     0.0280
     99 H         4.508913   11.159545   -1.721839 H        1 UNL1     0.0280
     100 H         6.618001   10.757741   -3.03634 H        1 UNL1     0.2922
     101 H         4.711169   0.913519   2.407364 H        1 UNL1     0.0236
     102 H         6.033682   2.143842   2.46504 H        1 UNL1     0.0236
     103 H         6.322435   0.532633   1.885276 H        1 UNL1     0.0236
     104 H         4.338771   -0.544372   1.246588 H        1 UNL1     0.2098
     105 H         0.70043   1.28297   -0.934973 H        1 UNL1     0.0234
     106 H         1.285585   -0.402668   -1.020506 H        1 UNL1     0.0234
     107 H         0.0   -0.0   0.0 H        1 UNL1     0.0234
     108 H         1.21122   3.256845   1.738184 H        1 UNL1     0.2098
     109 H         1.061937   3.063606   -0.855035 H        1 UNL1     0.0234
     110 H         -0.193916   2.325251   -1.899291 H        1 UNL1     0.0234
     111 H         0.036333   4.038631   -1.886741 H        1 UNL1     0.0234
     112 H         -3.573766   -1.532608   1.480434 H        1 UNL1     0.0342
     113 H         -3.218185   0.105411   2.13518 H        1 UNL1     0.0342
     114 H         -4.418432   -0.104461   0.857163 H        1 UNL1     0.0342
     115 H         -2.642866   1.942015   3.323994 H        1 UNL1     0.0234
     116 H         -1.135328   1.896891   4.243819 H        1 UNL1     0.0234
     117 H         -1.605228   3.287508   3.244306 H        1 UNL1     0.0234
     118 H         0.900998   7.681609   -0.769204 H        1 UNL1     0.0309
     119 H         2.16278   7.798115   -2.03506 H        1 UNL1     0.0309
     120 H         1.419472   6.270437   -1.615718 H        1 UNL1     0.0309
     121 H         -0.292191   6.252906   2.853239 H        1 UNL1     0.0524
     122 H         -2.030156   6.066189   2.5859 H        1 UNL1     0.0524
     123 H         -1.272388   5.315094   4.01257 H        1 UNL1     0.0524
@<TRIPOS>BOND
     1     1     2    1
     2     1    42    1
     3     2     3    2
     4     3     4    1
     5     4     5    2
     6     5     7    1
     7     6    75    1
     8     6    76    1
     9     6    77    1
    10     7     9   am
    11     9    10    1
    12    10    11    2
    13    10    43    1
    14    11    14    1
    15    11    15    1
    16    12    13   ar
    17    12    27   ar
    18    12    43    1
    19    13    14    1
    20    13    30   ar
    21    14    17    2
    22    15    16    1
    23    16    17    1
    24    16    18    1
    25    16    22    1
    26    18    19    1
    27    19    20    1
    28    20    21    1
    29    21    22    1
    30    23    24    1
    31    23    88    1
    32    23    89    1
    33    24    25    1
    34    24    26    1
    35    24    90    1
    36    25    91    1
    37    25    92    1
    38    25    93    1
    39    26    94    1
    40    26    95    1
    41    26    96    1
    42    27    28   ar
    43    28    29   ar
    44    29    30   ar
    45    29    31    1
    46    30    33    1
    47    31    32    1
    48    32    33    1
    49    32    35    1
    50    34    97    1
    51    34    98    1
    52    34    99    1
    53    35    61    1
    54    36    37    1
    55    36    60    1
    56    37    38    1
    57    38    39    1
    58    39    40    1
    59    40    41    1
    60    41    42    1
    61    45   100    1
    62    47   101    1
    63    47   102    1
    64    47   103    1
    65    48   104    1
    66    49   105    1
    67    49   106    1
    68    49   107    1
    69    50   108    1
    70    51    59    1
    71    52   109    1
    72    52   110    1
    73    52   111    1
    74    53    54    1
    75    54    55    2
    76    54    56    1
    77    56   112    1
    78    56   113    1
    79    56   114    1
    80    57   115    1
    81    57   116    1
    82    57   117    1
    83    58   118    1
    84    58   119    1
    85    58   120    1
    86    59   121    1
    87    59   122    1
    88    59   123    1
    89    60    61    2
    90     1    47    1
    91     1    62    1
    92     2    63    1
    93     3    64    1
    94     4    65    1
    95     5     6    1
    96     7     8    2
    97     9    78    1
    98    15    79    1
    99    18    80    1
   100    18    81    1
   101    19    82    1
   102    19    83    1
   103    20    23    1
   104    21    84    1
   105    21    85    1
   106    22    86    1
   107    22    87    1
   108    27    45    1
   109    28    34    1
   110    32    58    1
   111    33    46    2
   112    36    51    1
   113    36    66    1
   114    37    52    1
   115    37    67    1
   116    38    53    1
   117    38    68    1
   118    42    48    1
   119    42    72    1
   120    43    44    2
   121    60    73    1
   122    61    74    1
   123    39    69    1
   124    39    57    1
   125    40    70    1
   126    40    50    1
   127    41    71    1
   128    41    49    1
