@<TRIPOS>MOLECULE
*****
 123 128 0 0 0
SMALL
GASTEIGER

@<TRIPOS>ATOM
     1 C         5.156729   1.798091   0.417474 C.3        1 UNL1     0.0009
     2 C         6.572529   2.620001   -0.45259 C.2        1 UNL1     -0.0787
     3 C         7.845124   2.535754   -1.137755 C.2        1 UNL1     -0.0649
     4 C         8.699029   3.780996   -1.903637 C.2        1 UNL1     -0.0542
     5 C         9.7019   4.085589   -2.856817 C.2        1 UNL1     0.0115
     6 C         10.822956   3.473038   -3.74075 C.3        1 UNL1     -0.0348
     7 C         9.773655   5.570998   -3.4613 C.2        1 UNL1     0.2441
     8 O         10.595104   6.399839   -3.094192 O.2        1 UNL1     -0.2702
     9 N         9.003898   5.773134   -4.620078 N.am        1 UNL1     -0.2772
     10 C         7.722356   6.146604   -4.286174 C.2        1 UNL1     0.1049
     11 C         6.890556   5.16636   -3.983764 C.2        1 UNL1     0.0801
     12 C         6.429804   7.737488   -2.852392 C.ar        1 UNL1     0.0753
     13 C         5.688584   6.601264   -2.396107 C.ar        1 UNL1     0.0305
     14 C         5.808472   5.298148   -3.04616 C.2        1 UNL1     0.0924
     15 N         7.023686   3.838985   -4.147715 N.pl3        1 UNL1     -0.3170
     16 C         5.764594   3.226779   -3.815833 C.3        1 UNL1     0.1275
     17 N         5.133772   4.173661   -2.824268 N.2        1 UNL1     -0.2557
     18 C         4.892265   3.280222   -5.066388 C.3        1 UNL1     0.0016
     19 C         5.636671   2.605943   -6.20779 C.3        1 UNL1     0.0026
     20 N         5.92599   1.229723   -5.829187 N.3        1 UNL1     -0.3018
     21 C         6.709461   1.07414   -4.601858 C.3        1 UNL1     0.0026
     22 C         5.941017   1.75463   -3.467697 C.3        1 UNL1     0.0016
     23 C         6.361674   0.416935   -6.94731 C.3        1 UNL1     0.0012
     24 C         5.194041   0.158291   -7.91245 C.3        1 UNL1     -0.0339
     25 C         5.261696   1.084393   -9.137935 C.3        1 UNL1     -0.0615
     26 C         5.168279   -1.305042   -8.318371 C.3        1 UNL1     -0.0615
     27 C         6.220978   9.001968   -2.306866 C.ar        1 UNL1     0.1347
     28 C         5.27392   9.260092   -1.331928 C.ar        1 UNL1     0.0342
     29 C         4.590445   8.117868   -0.863579 C.ar        1 UNL1     0.1435
     30 C         4.814706   6.839126   -1.375189 C.ar        1 UNL1     0.0774
     31 O         3.56138   8.219447   0.005739 O.3        1 UNL1     -0.4436
     32 C         2.849668   6.979948   -0.128354 C.3        1 UNL1     0.3143
     33 C         3.864441   5.997918   -0.677957 C.2        1 UNL1     0.2504
     34 C         4.820507   10.620827   -0.881464 C.3        1 UNL1     -0.0327
     35 O         2.513179   6.536944   1.192167 O.2        1 UNL1     -0.4528
     36 C         -0.716531   4.574046   0.839899 C.3        1 UNL1     0.0854
     37 C         -1.023054   3.312456   -0.055622 C.3        1 UNL1     0.0236
     38 C         -1.599367   2.043935   0.738394 C.3        1 UNL1     0.1131
     39 C         -0.84894   1.517341   2.027513 C.3        1 UNL1     0.0200
     40 C         0.814021   1.387929   2.043334 C.3        1 UNL1     0.0661
     41 C         1.763092   0.630988   0.858464 C.3        1 UNL1     0.0091
     42 C         3.458373   1.011394   0.26964 C.3        1 UNL1     0.0661
     43 C         7.364812   7.541453   -3.987993 C.2        1 UNL1     0.2131
     44 O         7.745061   8.444917   -4.71042 O.2        1 UNL1     -0.2851
     45 O         7.016132   10.045927   -2.77518 O.3        1 UNL1     -0.5056
     46 O         3.894106   4.794321   -0.550171 O.2        1 UNL1     -0.2836
     47 C         5.578892   1.369448   1.848567 C.3        1 UNL1     -0.0566
     48 O         3.921823   -0.395437   0.341456 O.3        1 UNL1     -0.3909
     49 C         0.912602   0.392902   -0.36933 C.3        1 UNL1     -0.0577
     50 O         1.408201   2.610754   2.429821 O.3        1 UNL1     -0.3910
     51 O         -0.817772   4.380216   2.232598 O.3        1 UNL1     -0.3753
     52 C         0.005413   3.164632   -1.224106 C.3        1 UNL1     -0.0564
     53 O         -2.205338   1.001033   -0.154622 O.3        1 UNL1     -0.4608
     54 C         -2.390772   -0.316472   0.173595 C.2        1 UNL1     0.3042
     55 O         -1.741561   -1.283477   -0.222972 O.2        1 UNL1     -0.2512
     56 C         -3.487804   -0.537957   1.175682 C.3        1 UNL1     0.0332
     57 C         -1.557337   2.176589   3.300989 C.3        1 UNL1     -0.0567
     58 C         1.755911   7.216834   -1.195645 C.3        1 UNL1     0.0210
     59 C         -1.131222   5.554537   2.979983 C.3        1 UNL1     0.0372
     60 C         0.602655   5.216556   0.590719 C.2        1 UNL1     -0.0208
     61 C         1.524324   5.658833   1.44726 C.2        1 UNL1     0.0882
     62 H         4.672631   2.777386   0.51413 H        1 UNL1     0.0365
     63 H         6.297665   3.670926   -0.3409 H        1 UNL1     0.0576
     64 H         8.308772   1.573886   -1.36786 H        1 UNL1     0.0615
     65 H         8.208355   4.69086   -1.547449 H        1 UNL1     0.0622
     66 H         -1.473   5.313928   0.542619 H        1 UNL1     0.0645
     67 H         -1.900692   3.614655   -0.653106 H        1 UNL1     0.0362
     68 H         -2.545227   2.470805   1.105347 H        1 UNL1     0.0741
     69 H         -1.16763   0.502645   2.225597 H        1 UNL1     0.0359
     70 H         0.945493   0.726857   2.921263 H        1 UNL1     0.0600
     71 H         1.823037   -0.390604   1.282389 H        1 UNL1     0.0348
     72 H         3.362541   1.496469   1.251899 H        1 UNL1     0.0602
     73 H         0.702975   5.417138   -0.447043 H        1 UNL1     0.0628
     74 H         1.524969   5.445745   2.516761 H        1 UNL1     0.1022
     75 H         10.828442   2.359927   -3.651383 H        1 UNL1     0.0279
     76 H         10.729862   3.621408   -4.814244 H        1 UNL1     0.0279
     77 H         11.832027   3.724272   -3.382479 H        1 UNL1     0.0279
     78 H         8.942448   4.903733   -5.145857 H        1 UNL1     0.1553
     79 H         7.683696   3.418811   -4.776025 H        1 UNL1     0.1484
     80 H         3.938841   2.779524   -4.858902 H        1 UNL1     0.0317
     81 H         4.651524   4.315285   -5.331603 H        1 UNL1     0.0317
     82 H         6.558277   3.146822   -6.468569 H        1 UNL1     0.0428
     83 H         4.997629   2.656869   -7.089879 H        1 UNL1     0.0428
     84 H         6.844567   0.031761   -4.296894 H        1 UNL1     0.0428
     85 H         7.734243   1.452423   -4.720354 H        1 UNL1     0.0428
     86 H         6.473493   1.507399   -2.568067 H        1 UNL1     0.0317
     87 H         4.968262   1.267198   -3.328943 H        1 UNL1     0.0317
     88 H         7.144385   0.967584   -7.485309 H        1 UNL1     0.0429
     89 H         6.80869   -0.525311   -6.605078 H        1 UNL1     0.0429
     90 H         4.2481   0.34057   -7.388825 H        1 UNL1     0.0308
     91 H         6.210265   0.969951   -9.67106 H        1 UNL1     0.0233
     92 H         4.437283   0.877614   -9.824372 H        1 UNL1     0.0233
     93 H         5.175169   2.143446   -8.866355 H        1 UNL1     0.0233
     94 H         4.501729   -1.447466   -9.175846 H        1 UNL1     0.0233
     95 H         6.17046   -1.628758   -8.612996 H        1 UNL1     0.0233
     96 H         4.818628   -1.940172   -7.499639 H        1 UNL1     0.0233
     97 H         3.9994   10.562913   -0.173184 H        1 UNL1     0.0280
     98 H         5.618997   11.175185   -0.371213 H        1 UNL1     0.0280
     99 H         4.484072   11.20514   -1.753522 H        1 UNL1     0.0280
     100 H         6.538133   10.805331   -3.058807 H        1 UNL1     0.2922
     101 H         4.704566   1.030374   2.40376 H        1 UNL1     0.0236
     102 H         6.128074   2.1436   2.383422 H        1 UNL1     0.0236
     103 H         6.257605   0.500302   1.837263 H        1 UNL1     0.0236
     104 H         4.268355   -0.546185   1.242656 H        1 UNL1     0.2098
     105 H         0.682597   1.290822   -0.937352 H        1 UNL1     0.0234
     106 H         1.279694   -0.390094   -1.032721 H        1 UNL1     0.0234
     107 H         0.0   -0.0   0.0 H        1 UNL1     0.0234
     108 H         1.246527   3.25181   1.711018 H        1 UNL1     0.2098
     109 H         1.038246   3.072768   -0.86006 H        1 UNL1     0.0234
     110 H         -0.222356   2.329174   -1.894832 H        1 UNL1     0.0234
     111 H         -0.000681   4.043684   -1.882267 H        1 UNL1     0.0234
     112 H         -3.569221   -1.603955   1.408843 H        1 UNL1     0.0342
     113 H         -3.340727   0.049782   2.080543 H        1 UNL1     0.0342
     114 H         -4.436338   -0.219024   0.722107 H        1 UNL1     0.0342
     115 H         -2.64355   2.011378   3.295221 H        1 UNL1     0.0234
     116 H         -1.175362   1.81553   4.257953 H        1 UNL1     0.0234
     117 H         -1.509527   3.279126   3.309338 H        1 UNL1     0.0234
     118 H         0.854659   7.689803   -0.767802 H        1 UNL1     0.0309
     119 H         2.10544   7.814049   -2.043799 H        1 UNL1     0.0309
     120 H         1.373322   6.282179   -1.620087 H        1 UNL1     0.0309
     121 H         -0.742126   5.417128   3.988486 H        1 UNL1     0.0524
     122 H         -0.655501   6.456707   2.560681 H        1 UNL1     0.0524
     123 H         -2.206672   5.704794   3.010387 H        1 UNL1     0.0524
@<TRIPOS>BOND
     1     1     2    1
     2     1    42    1
     3     2     3    2
     4     3     4    1
     5     4     5    2
     6     5     7    1
     7     6    75    1
     8     6    76    1
     9     6    77    1
    10     7     9   am
    11     9    10    1
    12    10    11    2
    13    10    43    1
    14    11    14    1
    15    11    15    1
    16    12    13   ar
    17    12    27   ar
    18    12    43    1
    19    13    14    1
    20    13    30   ar
    21    14    17    2
    22    15    16    1
    23    16    17    1
    24    16    18    1
    25    16    22    1
    26    18    19    1
    27    19    20    1
    28    20    21    1
    29    21    22    1
    30    23    24    1
    31    23    88    1
    32    23    89    1
    33    24    25    1
    34    24    26    1
    35    24    90    1
    36    25    91    1
    37    25    92    1
    38    25    93    1
    39    26    94    1
    40    26    95    1
    41    26    96    1
    42    27    28   ar
    43    28    29   ar
    44    29    30   ar
    45    29    31    1
    46    30    33    1
    47    31    32    1
    48    32    33    1
    49    32    35    1
    50    34    97    1
    51    34    98    1
    52    34    99    1
    53    35    61    1
    54    36    37    1
    55    36    60    1
    56    37    38    1
    57    38    39    1
    58    39    40    1
    59    40    41    1
    60    41    42    1
    61    45   100    1
    62    47   101    1
    63    47   102    1
    64    47   103    1
    65    48   104    1
    66    49   105    1
    67    49   106    1
    68    49   107    1
    69    50   108    1
    70    51    59    1
    71    52   109    1
    72    52   110    1
    73    52   111    1
    74    53    54    1
    75    54    55    2
    76    54    56    1
    77    56   112    1
    78    56   113    1
    79    56   114    1
    80    57   115    1
    81    57   116    1
    82    57   117    1
    83    58   118    1
    84    58   119    1
    85    58   120    1
    86    59   121    1
    87    59   122    1
    88    59   123    1
    89    60    61    2
    90     1    47    1
    91     1    62    1
    92     2    63    1
    93     3    64    1
    94     4    65    1
    95     5     6    1
    96     7     8    2
    97     9    78    1
    98    15    79    1
    99    18    80    1
   100    18    81    1
   101    19    82    1
   102    19    83    1
   103    20    23    1
   104    21    84    1
   105    21    85    1
   106    22    86    1
   107    22    87    1
   108    27    45    1
   109    28    34    1
   110    32    58    1
   111    33    46    2
   112    36    51    1
   113    36    66    1
   114    37    52    1
   115    37    67    1
   116    38    53    1
   117    38    68    1
   118    42    48    1
   119    42    72    1
   120    43    44    2
   121    60    73    1
   122    61    74    1
   123    39    69    1
   124    39    57    1
   125    40    70    1
   126    40    50    1
   127    41    71    1
   128    41    49    1
