@<TRIPOS>MOLECULE
*****
 123 128 0 0 0
SMALL
GASTEIGER

@<TRIPOS>ATOM
     1 C         -0.722474   3.231837   2.460853 C.3        1 UNL1     0.0009
     2 C         -2.203163   4.347452   2.459923 C.2        1 UNL1     -0.0787
     3 C         -2.851026   5.574548   2.04694 C.2        1 UNL1     -0.0649
     4 C         -4.459358   6.038506   2.300646 C.2        1 UNL1     -0.0542
     5 C         -5.503165   6.893267   1.868294 C.2        1 UNL1     0.0115
     6 C         -5.836713   8.11061   0.962676 C.3        1 UNL1     -0.0348
     7 C         -7.014516   6.544533   2.282047 C.2        1 UNL1     0.2441
     8 O         -7.608742   7.123411   3.181114 O.2        1 UNL1     -0.2702
     9 N         -7.696633   5.714213   1.375716 N.am        1 UNL1     -0.2772
     10 C         -7.480183   4.390113   1.681052 C.2        1 UNL1     0.1049
     11 C         -6.360496   3.862178   1.220825 C.2        1 UNL1     0.0801
     12 C         -7.513436   2.761066   3.57906 C.ar        1 UNL1     0.0753
     13 C         -6.202578   2.366928   3.160832 C.ar        1 UNL1     0.0305
     14 C         -5.638732   2.8133   1.888872 C.2        1 UNL1     0.0924
     15 N         -5.484882   4.342476   0.321301 N.pl3        1 UNL1     -0.3170
     16 C         -4.527566   3.305084   0.042701 C.3        1 UNL1     0.1275
     17 N         -4.495073   2.472977   1.301377 N.2        1 UNL1     -0.2557
     18 C         -5.12923   2.413255   -1.039123 C.3        1 UNL1     0.0016
     19 C         -5.486   3.276856   -2.238497 C.3        1 UNL1     0.0026
     20 N         -4.278567   3.937003   -2.715298 N.3        1 UNL1     -0.3018
     21 C         -3.593107   4.770068   -1.725087 C.3        1 UNL1     0.0026
     22 C         -3.23991   3.881438   -0.531151 C.3        1 UNL1     0.0016
     23 C         -4.444832   4.54137   -4.022103 C.3        1 UNL1     0.0012
     24 C         -5.209708   3.59436   -4.960129 C.3        1 UNL1     -0.0339
     25 C         -4.295207   3.034789   -6.062229 C.3        1 UNL1     -0.0615
     26 C         -5.863176   2.482476   -4.157962 C.3        1 UNL1     -0.0615
     27 C         -8.091193   2.236319   4.73273 C.ar        1 UNL1     0.1347
     28 C         -7.473628   1.284565   5.524455 C.ar        1 UNL1     0.0342
     29 C         -6.164201   0.947994   5.120371 C.ar        1 UNL1     0.1435
     30 C         -5.558513   1.492458   3.987269 C.ar        1 UNL1     0.0774
     31 O         -5.473421   -0.043776   5.72388 O.3        1 UNL1     -0.4436
     32 C         -4.451104   -0.399519   4.780912 C.3        1 UNL1     0.3143
     33 C         -4.276106   0.82498   3.905589 C.2        1 UNL1     0.2504
     34 C         -8.125842   0.495604   6.625481 C.3        1 UNL1     -0.0327
     35 O         -3.232252   -0.564473   5.516059 O.2        1 UNL1     -0.4528
     36 C         -1.213008   -3.156179   3.615059 C.3        1 UNL1     0.0854
     37 C         -0.731856   -3.138867   2.113155 C.3        1 UNL1     0.0236
     38 C         0.847172   -3.328486   1.907098 C.3        1 UNL1     0.1131
     39 C         1.859224   -2.425562   2.721192 C.3        1 UNL1     0.0200
     40 C         1.582922   -0.789397   2.891657 C.3        1 UNL1     0.0661
     41 C         1.215046   0.292154   1.637653 C.3        1 UNL1     0.0091
     42 C         0.17604   1.804063   1.63666 C.3        1 UNL1     0.0661
     43 C         -8.273267   3.679674   2.695275 C.2        1 UNL1     0.2131
     44 O         -9.486591   3.780911   2.713497 O.2        1 UNL1     -0.2851
     45 O         -9.351893   2.706835   5.09424 O.3        1 UNL1     -0.5056
     46 O         -3.292532   1.18117   3.296029 O.2        1 UNL1     -0.2836
     47 C         0.377708   3.79668   3.39922 C.3        1 UNL1     -0.0566
     48 O         1.179381   2.630827   0.923299 O.3        1 UNL1     -0.3909
     49 C         0.843239   -0.49954   0.403767 C.3        1 UNL1     -0.0577
     50 O         0.754306   -0.534705   4.008012 O.3        1 UNL1     -0.3910
     51 O         -0.19338   -3.159522   4.588598 O.3        1 UNL1     -0.3753
     52 C         -1.569874   -2.144249   1.245163 C.3        1 UNL1     -0.0564
     53 O         1.233213   -3.658196   0.494799 O.3        1 UNL1     -0.4608
     54 C         2.217279   -4.536855   0.123984 C.2        1 UNL1     0.3042
     55 O         3.283419   -4.750626   0.699732 O.2        1 UNL1     -0.2512
     56 C         1.876436   -5.340607   -1.098522 C.3        1 UNL1     0.0332
     57 C         2.299614   -3.246475   4.021321 C.3        1 UNL1     -0.0567
     58 C         -5.028948   -1.548333   3.921929 C.3        1 UNL1     0.0210
     59 C         -0.450309   -2.34065   5.728467 C.3        1 UNL1     0.0372
     60 C         -2.156744   -2.066596   3.985643 C.2        1 UNL1     -0.0208
     61 C         -2.182579   -1.272499   5.056851 C.2        1 UNL1     0.0882
     62 H         -1.294175   2.505284   3.050761 H        1 UNL1     0.0365
     63 H         -2.868325   3.803506   3.133831 H        1 UNL1     0.0576
     64 H         -2.369195   6.272704   1.358808 H        1 UNL1     0.0615
     65 H         -4.818633   5.332123   3.053924 H        1 UNL1     0.0622
     66 H         -1.780524   -4.092402   3.712311 H        1 UNL1     0.0645
     67 H         -1.122632   -4.083042   1.695557 H        1 UNL1     0.0362
     68 H         0.965766   -4.342805   2.317724 H        1 UNL1     0.0741
     69 H         2.822907   -2.453419   2.230328 H        1 UNL1     0.0359
     70 H         2.589124   -0.458537   3.212826 H        1 UNL1     0.0600
     71 H         2.234233   0.637458   1.375013 H        1 UNL1     0.0348
     72 H         0.429417   1.610923   2.689186 H        1 UNL1     0.0602
     73 H         -2.964832   -2.055258   3.297083 H        1 UNL1     0.0628
     74 H         -1.368975   -1.182321   5.777374 H        1 UNL1     0.1022
     75 H         -5.393324   7.976459   -0.053416 H        1 UNL1     0.0279
     76 H         -6.888404   8.275473   0.739442 H        1 UNL1     0.0279
     77 H         -5.342573   9.035516   1.294454 H        1 UNL1     0.0279
     78 H         -7.343941   5.873089   0.434204 H        1 UNL1     0.1553
     79 H         -5.701916   5.071938   -0.332697 H        1 UNL1     0.1484
     80 H         -4.402906   1.636374   -1.306844 H        1 UNL1     0.0317
     81 H         -6.02009   1.895065   -0.668315 H        1 UNL1     0.0317
     82 H         -6.267938   4.010692   -1.993608 H        1 UNL1     0.0428
     83 H         -5.914937   2.621387   -2.997064 H        1 UNL1     0.0428
     84 H         -2.648064   5.189733   -2.083676 H        1 UNL1     0.0428
     85 H         -4.188836   5.651256   -1.449529 H        1 UNL1     0.0428
     86 H         -2.626837   4.487656   0.109652 H        1 UNL1     0.0317
     87 H         -2.561092   3.080306   -0.848155 H        1 UNL1     0.0317
     88 H         -5.030987   5.461683   -3.900692 H        1 UNL1     0.0429
     89 H         -3.477913   4.830487   -4.453673 H        1 UNL1     0.0429
     90 H         -6.031302   4.144464   -5.43403 H        1 UNL1     0.0308
     91 H         -4.027177   1.992416   -5.865451 H        1 UNL1     0.0233
     92 H         -4.78109   3.102002   -7.038452 H        1 UNL1     0.0233
     93 H         -3.355687   3.593881   -6.149135 H        1 UNL1     0.0233
     94 H         -5.87134   1.553116   -4.737668 H        1 UNL1     0.0233
     95 H         -5.297342   2.302042   -3.239682 H        1 UNL1     0.0233
     96 H         -6.894131   2.733969   -3.893667 H        1 UNL1     0.0233
     97 H         -7.798396   -0.539741   6.633899 H        1 UNL1     0.0280
     98 H         -7.885119   0.895028   7.619346 H        1 UNL1     0.0280
     99 H         -9.219966   0.510926   6.492235 H        1 UNL1     0.0280
     100 H         -9.551826   2.626704   6.010334 H        1 UNL1     0.2922
     101 H         1.258981   3.156815   3.359394 H        1 UNL1     0.0236
     102 H         0.03145   3.952801   4.420354 H        1 UNL1     0.0236
     103 H         0.73531   4.786375   3.069342 H        1 UNL1     0.0236
     104 H         1.674859   2.04032   0.322655 H        1 UNL1     0.2098
     105 H         1.613674   -0.524622   -0.362792 H        1 UNL1     0.0234
     106 H         0.474972   -1.505963   0.602313 H        1 UNL1     0.0234
     107 H         -0.0   0.0   0.0 H        1 UNL1     0.0234
     108 H         0.579071   0.425885   4.026081 H        1 UNL1     0.2098
     109 H         -1.591603   -2.433616   0.185207 H        1 UNL1     0.0234
     110 H         -2.594177   -2.012248   1.610022 H        1 UNL1     0.0234
     111 H         -1.146498   -1.131247   1.268106 H        1 UNL1     0.0234
     112 H         2.064646   -6.402004   -0.91048 H        1 UNL1     0.0342
     113 H         0.849808   -5.177325   -1.422895 H        1 UNL1     0.0342
     114 H         2.538375   -5.020689   -1.915012 H        1 UNL1     0.0342
     115 H         2.089082   -4.319812   3.91734 H        1 UNL1     0.0234
     116 H         3.356334   -3.142232   4.27534 H        1 UNL1     0.0234
     117 H         1.707511   -2.999185   4.919209 H        1 UNL1     0.0234
     118 H         -4.871329   -2.535756   4.390074 H        1 UNL1     0.0309
     119 H         -6.093172   -1.423925   3.697981 H        1 UNL1     0.0309
     120 H         -4.524619   -1.644251   2.95417 H        1 UNL1     0.0309
     121 H         -0.266078   -2.944581   6.616545 H        1 UNL1     0.0524
     122 H         0.221028   -1.467099   5.775931 H        1 UNL1     0.0524
     123 H         -1.479781   -1.993994   5.717858 H        1 UNL1     0.0524
@<TRIPOS>BOND
     1     1     2    1
     2     1    42    1
     3     2     3    2
     4     3     4    1
     5     4     5    2
     6     5     7    1
     7     6    75    1
     8     6    76    1
     9     6    77    1
    10     7     9   am
    11     9    10    1
    12    10    11    2
    13    10    43    1
    14    11    14    1
    15    11    15    1
    16    12    13   ar
    17    12    27   ar
    18    12    43    1
    19    13    14    1
    20    13    30   ar
    21    14    17    2
    22    15    16    1
    23    16    17    1
    24    16    18    1
    25    16    22    1
    26    18    19    1
    27    19    20    1
    28    20    21    1
    29    21    22    1
    30    23    24    1
    31    23    88    1
    32    23    89    1
    33    24    25    1
    34    24    26    1
    35    24    90    1
    36    25    91    1
    37    25    92    1
    38    25    93    1
    39    26    94    1
    40    26    95    1
    41    26    96    1
    42    27    28   ar
    43    28    29   ar
    44    29    30   ar
    45    29    31    1
    46    30    33    1
    47    31    32    1
    48    32    33    1
    49    32    35    1
    50    34    97    1
    51    34    98    1
    52    34    99    1
    53    35    61    1
    54    36    37    1
    55    36    60    1
    56    37    38    1
    57    38    39    1
    58    39    40    1
    59    40    41    1
    60    41    42    1
    61    45   100    1
    62    47   101    1
    63    47   102    1
    64    47   103    1
    65    48   104    1
    66    49   105    1
    67    49   106    1
    68    49   107    1
    69    50   108    1
    70    51    59    1
    71    52   109    1
    72    52   110    1
    73    52   111    1
    74    53    54    1
    75    54    55    2
    76    54    56    1
    77    56   112    1
    78    56   113    1
    79    56   114    1
    80    57   115    1
    81    57   116    1
    82    57   117    1
    83    58   118    1
    84    58   119    1
    85    58   120    1
    86    59   121    1
    87    59   122    1
    88    59   123    1
    89    60    61    2
    90     1    47    1
    91     1    62    1
    92     2    63    1
    93     3    64    1
    94     4    65    1
    95     5     6    1
    96     7     8    2
    97     9    78    1
    98    15    79    1
    99    18    80    1
   100    18    81    1
   101    19    82    1
   102    19    83    1
   103    20    23    1
   104    21    84    1
   105    21    85    1
   106    22    86    1
   107    22    87    1
   108    27    45    1
   109    28    34    1
   110    32    58    1
   111    33    46    2
   112    36    51    1
   113    36    66    1
   114    37    52    1
   115    37    67    1
   116    38    53    1
   117    38    68    1
   118    42    48    1
   119    42    72    1
   120    43    44    2
   121    60    73    1
   122    61    74    1
   123    39    69    1
   124    39    57    1
   125    40    70    1
   126    40    50    1
   127    41    71    1
   128    41    49    1
