@<TRIPOS>MOLECULE
*****
 123 128 0 0 0
SMALL
GASTEIGER

@<TRIPOS>ATOM
     1 C         3.598639   1.75477   3.720172 C.3        1 UNL1     0.0009
     2 C         5.170669   1.355502   4.618138 C.2        1 UNL1     -0.0787
     3 C         5.858933   0.944555   5.823734 C.2        1 UNL1     -0.0649
     4 C         7.506076   0.604043   6.016934 C.2        1 UNL1     -0.0542
     5 C         8.469364   -0.051965   6.822421 C.2        1 UNL1     0.0115
     6 C         8.689234   -0.778811   8.177661 C.3        1 UNL1     -0.0348
     7 C         9.919941   -0.356566   6.205954 C.2        1 UNL1     0.2441
     8 O         10.909145   0.312973   6.469996 O.2        1 UNL1     -0.2702
     9 N         10.033269   -1.59522   5.550939 N.am        1 UNL1     -0.2772
     10 C         9.676447   -1.473081   4.227654 C.2        1 UNL1     0.1049
     11 C         8.383025   -1.527212   3.966213 C.2        1 UNL1     0.0801
     12 C         10.069702   -0.079864   2.187647 C.ar        1 UNL1     0.0753
     13 C         8.646036   0.005281   2.067099 C.ar        1 UNL1     0.0305
     14 C         7.758462   -0.825535   2.87766 C.2        1 UNL1     0.0924
     15 N         7.356988   -1.891792   4.754157 N.pl3        1 UNL1     -0.3170
     16 C         6.172595   -1.940979   3.938652 C.3        1 UNL1     0.1275
     17 N         6.435123   -0.950115   2.830955 N.2        1 UNL1     -0.2557
     18 C         6.135669   -3.315421   3.277406 C.3        1 UNL1     0.0016
     19 C         6.195449   -4.378847   4.362367 C.3        1 UNL1     0.0026
     20 N         5.061385   -4.197638   5.257962 N.3        1 UNL1     -0.3018
     21 C         4.976487   -2.881961   5.895267 C.3        1 UNL1     0.0026
     22 C         4.912781   -1.829379   4.787157 C.3        1 UNL1     0.0016
     23 C         4.855436   -5.326983   6.142727 C.3        1 UNL1     0.0012
     24 C         5.747072   -5.204881   7.388452 C.3        1 UNL1     -0.0339
     25 C         6.215223   -6.58366   7.882277 C.3        1 UNL1     -0.0615
     26 C         6.921514   -4.285971   7.100234 C.3        1 UNL1     -0.0615
     27 C         10.910158   0.625146   1.329326 C.ar        1 UNL1     0.1347
     28 C         10.445636   1.412986   0.291261 C.ar        1 UNL1     0.0342
     29 C         9.040347   1.520627   0.222408 C.ar        1 UNL1     0.1435
     30 C         8.186213   0.84893   1.097907 C.ar        1 UNL1     0.0774
     31 O         8.431879   2.162225   -0.798927 O.3        1 UNL1     -0.4436
     32 C         7.084438   1.667117   -0.786892 C.3        1 UNL1     0.3143
     33 C         6.855924   1.174779   0.627886 C.2        1 UNL1     0.2504
     34 C         11.279713   1.992912   -0.816935 C.3        1 UNL1     -0.0327
     35 O         6.216241   2.790038   -0.98319 O.2        1 UNL1     -0.4528
     36 C         3.151086   1.436355   -2.766573 C.3        1 UNL1     0.0854
     37 C         2.165305   0.288442   -2.32154 C.3        1 UNL1     0.0236
     38 C         0.618851   0.709346   -2.266164 C.3        1 UNL1     0.1131
     39 C         0.187424   2.012144   -1.47949 C.3        1 UNL1     0.0200
     40 C         0.8381   2.348542   0.019141 C.3        1 UNL1     0.0661
     41 C         0.932774   1.271032   1.3259 C.3        1 UNL1     0.0091
     42 C         2.1861   1.122271   2.657232 C.3        1 UNL1     0.0661
     43 C         10.622452   -1.013843   3.199779 C.2        1 UNL1     0.2131
     44 O         11.749972   -1.470867   3.149121 O.2        1 UNL1     -0.2851
     45 O         12.283214   0.523293   1.543287 O.3        1 UNL1     -0.5056
     46 O         5.813218   1.091388   1.237529 O.2        1 UNL1     -0.2836
     47 C         3.063369   3.143575   4.161407 C.3        1 UNL1     -0.0566
     48 O         1.184288   1.038877   3.747431 O.3        1 UNL1     -0.3909
     49 C         0.652117   -0.128459   0.825749 C.3        1 UNL1     -0.0577
     50 O         2.052965   3.059273   -0.110048 O.3        1 UNL1     -0.3910
     51 O         2.584623   2.721393   -2.889981 O.3        1 UNL1     -0.3753
     52 C         2.810426   -0.649333   -1.249465 C.3        1 UNL1     -0.0564
     53 O         -0.319268   -0.459495   -2.188268 O.3        1 UNL1     -0.4608
     54 C         -1.02204   -0.842228   -1.075812 C.2        1 UNL1     0.3042
     55 O         -0.767674   -1.77632   -0.316465 O.2        1 UNL1     -0.2512
     56 C         -2.191634   0.048626   -0.767361 C.3        1 UNL1     0.0332
     57 C         0.097751   3.207461   -2.538428 C.3        1 UNL1     -0.0567
     58 C         7.054996   0.45561   -1.747576 C.3        1 UNL1     0.0210
     59 C         3.339714   3.769933   -2.28478 C.3        1 UNL1     0.0372
     60 C         4.367809   1.582909   -1.922022 C.2        1 UNL1     -0.0208
     61 C         4.949526   2.675916   -1.426356 C.2        1 UNL1     0.0882
     62 H         4.184348   1.920533   2.807933 H        1 UNL1     0.0365
     63 H         5.9097   1.591664   3.849678 H        1 UNL1     0.0576
     64 H         5.312662   0.64922   6.722329 H        1 UNL1     0.0615
     65 H         7.963543   1.005936   5.10881 H        1 UNL1     0.0622
     66 H         3.508313   1.124416   -3.758102 H        1 UNL1     0.0645
     67 H         2.171045   -0.414725   -3.17247 H        1 UNL1     0.0362
     68 H         0.453404   0.942158   -3.329154 H        1 UNL1     0.0741
     69 H         -0.872731   1.957687   -1.270889 H        1 UNL1     0.0359
     70 H         0.112455   3.103863   0.376898 H        1 UNL1     0.0600
     71 H         -0.016687   1.511014   1.843481 H        1 UNL1     0.0348
     72 H         2.304229   2.133322   2.241133 H        1 UNL1     0.0602
     73 H         4.84911   0.64043   -1.836391 H        1 UNL1     0.0628
     74 H         4.495931   3.667616   -1.421613 H        1 UNL1     0.1022
     75 H         7.758636   -1.309103   8.493592 H        1 UNL1     0.0279
     76 H         9.427987   -1.577089   8.185774 H        1 UNL1     0.0279
     77 H         8.836344   -0.081387   9.015313 H        1 UNL1     0.0279
     78 H         9.399534   -2.267388   5.978313 H        1 UNL1     0.1553
     79 H         7.463296   -2.434064   5.591757 H        1 UNL1     0.1484
     80 H         5.218411   -3.401393   2.682417 H        1 UNL1     0.0317
     81 H         6.972982   -3.437698   2.581988 H        1 UNL1     0.0317
     82 H         7.145837   -4.343648   4.915029 H        1 UNL1     0.0428
     83 H         6.169739   -5.350896   3.868901 H        1 UNL1     0.0428
     84 H         4.074237   -2.744577   6.499321 H        1 UNL1     0.0428
     85 H         5.799751   -2.717204   6.604074 H        1 UNL1     0.0428
     86 H         4.718034   -0.897154   5.284166 H        1 UNL1     0.0317
     87 H         4.015437   -1.983149   4.175418 H        1 UNL1     0.0317
     88 H         3.805289   -5.323003   6.462835 H        1 UNL1     0.0429
     89 H         5.029565   -6.277831   5.622784 H        1 UNL1     0.0429
     90 H         5.178223   -4.721088   8.191302 H        1 UNL1     0.0308
     91 H         6.574056   -7.201996   7.054025 H        1 UNL1     0.0233
     92 H         7.011624   -6.478803   8.622789 H        1 UNL1     0.0233
     93 H         5.412255   -7.145792   8.374298 H        1 UNL1     0.0233
     94 H         7.739754   -4.488029   7.799871 H        1 UNL1     0.0233
     95 H         7.293351   -4.461492   6.086877 H        1 UNL1     0.0233
     96 H         6.637756   -3.23407   7.194858 H        1 UNL1     0.0233
     97 H         12.335545   2.014059   -0.563948 H        1 UNL1     0.0280
     98 H         11.204032   1.40669   -1.742068 H        1 UNL1     0.0280
     99 H         10.953045   3.025311   -1.023179 H        1 UNL1     0.0280
     100 H         12.740986   1.345519   1.546693 H        1 UNL1     0.2922
     101 H         3.371174   3.347419   5.186766 H        1 UNL1     0.0236
     102 H         1.987279   3.250181   4.02856 H        1 UNL1     0.0236
     103 H         3.502257   3.963816   3.569144 H        1 UNL1     0.0236
     104 H         1.105903   1.928285   4.144646 H        1 UNL1     0.2098
     105 H         1.530497   -0.664874   0.475721 H        1 UNL1     0.0234
     106 H         0.078065   -0.750762   1.512139 H        1 UNL1     0.0234
     107 H         -0.0   0.0   0.0 H        1 UNL1     0.0234
     108 H         2.729855   2.424017   -0.413425 H        1 UNL1     0.2098
     109 H         2.209559   -1.551956   -1.070739 H        1 UNL1     0.0234
     110 H         3.839379   -0.936166   -1.491802 H        1 UNL1     0.0234
     111 H         2.895557   -0.151078   -0.27456 H        1 UNL1     0.0234
     112 H         -2.745254   0.267258   -1.685539 H        1 UNL1     0.0342
     113 H         -2.84535   -0.381279   -0.009944 H        1 UNL1     0.0342
     114 H         -1.804884   0.998417   -0.373044 H        1 UNL1     0.0342
     115 H         -0.181209   2.847266   -3.538243 H        1 UNL1     0.0234
     116 H         -0.609428   3.992392   -2.263056 H        1 UNL1     0.0234
     117 H         1.071005   3.683933   -2.747458 H        1 UNL1     0.0234
     118 H         7.845696   -0.278528   -1.513392 H        1 UNL1     0.0309
     119 H         6.08671   -0.054565   -1.766116 H        1 UNL1     0.0309
     120 H         7.269867   0.736088   -2.784528 H        1 UNL1     0.0309
     121 H         2.64655   4.571738   -2.031819 H        1 UNL1     0.0524
     122 H         3.829445   3.447513   -1.350839 H        1 UNL1     0.0524
     123 H         4.097616   4.132931   -2.973192 H        1 UNL1     0.0524
@<TRIPOS>BOND
     1     1     2    1
     2     1    42    1
     3     2     3    2
     4     3     4    1
     5     4     5    2
     6     5     7    1
     7     6    75    1
     8     6    76    1
     9     6    77    1
    10     7     9   am
    11     9    10    1
    12    10    11    2
    13    10    43    1
    14    11    14    1
    15    11    15    1
    16    12    13   ar
    17    12    27   ar
    18    12    43    1
    19    13    14    1
    20    13    30   ar
    21    14    17    2
    22    15    16    1
    23    16    17    1
    24    16    18    1
    25    16    22    1
    26    18    19    1
    27    19    20    1
    28    20    21    1
    29    21    22    1
    30    23    24    1
    31    23    88    1
    32    23    89    1
    33    24    25    1
    34    24    26    1
    35    24    90    1
    36    25    91    1
    37    25    92    1
    38    25    93    1
    39    26    94    1
    40    26    95    1
    41    26    96    1
    42    27    28   ar
    43    28    29   ar
    44    29    30   ar
    45    29    31    1
    46    30    33    1
    47    31    32    1
    48    32    33    1
    49    32    35    1
    50    34    97    1
    51    34    98    1
    52    34    99    1
    53    35    61    1
    54    36    37    1
    55    36    60    1
    56    37    38    1
    57    38    39    1
    58    39    40    1
    59    40    41    1
    60    41    42    1
    61    45   100    1
    62    47   101    1
    63    47   102    1
    64    47   103    1
    65    48   104    1
    66    49   105    1
    67    49   106    1
    68    49   107    1
    69    50   108    1
    70    51    59    1
    71    52   109    1
    72    52   110    1
    73    52   111    1
    74    53    54    1
    75    54    55    2
    76    54    56    1
    77    56   112    1
    78    56   113    1
    79    56   114    1
    80    57   115    1
    81    57   116    1
    82    57   117    1
    83    58   118    1
    84    58   119    1
    85    58   120    1
    86    59   121    1
    87    59   122    1
    88    59   123    1
    89    60    61    2
    90     1    47    1
    91     1    62    1
    92     2    63    1
    93     3    64    1
    94     4    65    1
    95     5     6    1
    96     7     8    2
    97     9    78    1
    98    15    79    1
    99    18    80    1
   100    18    81    1
   101    19    82    1
   102    19    83    1
   103    20    23    1
   104    21    84    1
   105    21    85    1
   106    22    86    1
   107    22    87    1
   108    27    45    1
   109    28    34    1
   110    32    58    1
   111    33    46    2
   112    36    51    1
   113    36    66    1
   114    37    52    1
   115    37    67    1
   116    38    53    1
   117    38    68    1
   118    42    48    1
   119    42    72    1
   120    43    44    2
   121    60    73    1
   122    61    74    1
   123    39    69    1
   124    39    57    1
   125    40    70    1
   126    40    50    1
   127    41    71    1
   128    41    49    1
