@<TRIPOS>MOLECULE
*****
 123 128 0 0 0
SMALL
GASTEIGER

@<TRIPOS>ATOM
     1 C         0.159564   -2.432735   -4.309803 C.3        1 UNL1     0.0009
     2 C         1.401568   -2.620976   -5.673266 C.2        1 UNL1     -0.0787
     3 C         1.792956   -2.419318   -7.052467 C.2        1 UNL1     -0.0649
     4 C         3.291105   -2.75067   -7.768088 C.2        1 UNL1     -0.0542
     5 C         4.141028   -2.469033   -8.865989 C.2        1 UNL1     0.0115
     6 C         4.211291   -1.779177   -10.256128 C.3        1 UNL1     -0.0348
     7 C         5.702567   -2.822892   -8.750368 C.2        1 UNL1     0.2441
     8 O         6.20261   -3.807163   -9.277334 O.2        1 UNL1     -0.2702
     9 N         6.502613   -1.792894   -8.225789 N.am        1 UNL1     -0.2772
     10 C         6.549846   -1.873372   -6.852976 C.2        1 UNL1     0.1049
     11 C         5.537333   -1.328974   -6.202846 C.2        1 UNL1     0.0801
     12 C         6.94671   -3.474315   -4.972334 C.ar        1 UNL1     0.0753
     13 C         5.722469   -2.993085   -4.408188 C.ar        1 UNL1     0.0305
     14 C         5.047167   -1.811581   -4.940228 C.2        1 UNL1     0.0924
     15 N         4.560563   -0.519575   -6.647057 N.pl3        1 UNL1     -0.3170
     16 C         3.809208   -0.070016   -5.505297 C.3        1 UNL1     0.1275
     17 N         3.971862   -1.172805   -4.487887 N.2        1 UNL1     -0.2557
     18 C         4.536779   1.143458   -4.934489 C.3        1 UNL1     0.0016
     19 C         4.688175   2.181717   -6.034802 C.3        1 UNL1     0.0026
     20 N         3.364108   2.545221   -6.520332 N.3        1 UNL1     -0.3018
     21 C         2.562727   1.432064   -7.033205 C.3        1 UNL1     0.0026
     22 C         2.419417   0.403319   -5.910244 C.3        1 UNL1     0.0016
     23 C         3.374452   3.732982   -7.350851 C.3        1 UNL1     0.0012
     24 C         4.633429   4.570701   -7.077064 C.3        1 UNL1     -0.0339
     25 C         5.290799   5.041797   -8.38473 C.3        1 UNL1     -0.0615
     26 C         4.293651   5.740046   -6.169339 C.3        1 UNL1     -0.0615
     27 C         7.647027   -4.526184   -4.386464 C.ar        1 UNL1     0.1347
     28 C         7.244376   -5.147154   -3.217567 C.ar        1 UNL1     0.0342
     29 C         6.011056   -4.689443   -2.707092 C.ar        1 UNL1     0.1435
     30 C         5.280197   -3.661061   -3.303327 C.ar        1 UNL1     0.0774
     31 O         5.538591   -5.117978   -1.516235 O.3        1 UNL1     -0.4436
     32 C         4.574851   -4.12642   -1.130372 C.3        1 UNL1     0.3143
     33 C         4.145525   -3.466341   -2.42505 C.2        1 UNL1     0.2504
     34 C         8.066248   -6.103388   -2.398883 C.3        1 UNL1     -0.0327
     35 O         3.431421   -4.820843   -0.616955 O.2        1 UNL1     -0.4528
     36 C         1.884409   -2.510444   1.967013 C.3        1 UNL1     0.0854
     37 C         1.364746   -1.031093   1.796733 C.3        1 UNL1     0.0236
     38 C         -0.155183   -0.792396   2.249045 C.3        1 UNL1     0.1131
     39 C         -1.295508   -1.742672   1.702325 C.3        1 UNL1     0.0200
     40 C         -1.329097   -2.183393   0.093886 C.3        1 UNL1     0.0661
     41 C         -1.209673   -1.127516   -1.228412 C.3        1 UNL1     0.0091
     42 C         -0.476203   -1.380441   -2.890776 C.3        1 UNL1     0.0661
     43 C         7.49256   -2.757417   -6.151471 C.2        1 UNL1     0.2131
     44 O         8.664773   -2.795278   -6.478918 O.2        1 UNL1     -0.2851
     45 O         8.80591   -4.964052   -5.024194 O.3        1 UNL1     -0.5056
     46 O         3.094817   -2.921972   -2.681034 O.2        1 UNL1     -0.2836
     47 C         -0.999595   -3.449143   -4.492133 C.3        1 UNL1     -0.0566
     48 O         -1.638458   -0.811875   -3.615352 O.3        1 UNL1     -0.3909
     49 C         -0.731129   0.219844   -0.73535 C.3        1 UNL1     -0.0577
     50 O         -0.53124   -3.328643   -0.128708 O.3        1 UNL1     -0.3910
     51 O         0.912922   -3.467307   2.324864 O.3        1 UNL1     -0.3753
     52 C         1.973407   -0.342599   0.531641 C.3        1 UNL1     -0.0564
     53 O         -0.51316   0.65603   2.41103 O.3        1 UNL1     -0.4608
     54 C         -1.786668   1.160057   2.456468 C.2        1 UNL1     0.3042
     55 O         -2.317741   1.764945   3.387011 O.2        1 UNL1     -0.2512
     56 C         -2.554004   0.971536   1.178827 C.3        1 UNL1     0.0332
     57 C         -1.534095   -2.887166   2.79383 C.3        1 UNL1     -0.0567
     58 C         5.33425   -3.089915   -0.269848 C.3        1 UNL1     0.0210
     59 C         1.425069   -4.622654   2.987242 C.3        1 UNL1     0.0372
     60 C         2.615258   -3.059346   0.792396 C.2        1 UNL1     -0.0208
     61 C         2.521752   -4.247696   0.194211 C.2        1 UNL1     0.0882
     62 H         0.875574   -2.89513   -3.619708 H        1 UNL1     0.0365
     63 H         2.177203   -3.196788   -5.16405 H        1 UNL1     0.0576
     64 H         1.16764   -1.855574   -7.748369 H        1 UNL1     0.0615
     65 H         3.799609   -3.376977   -7.030086 H        1 UNL1     0.0622
     66 H         2.621528   -2.452178   2.780221 H        1 UNL1     0.0645
     67 H         1.914771   -0.463372   2.567268 H        1 UNL1     0.0362
     68 H         -0.067463   -1.028432   3.320546 H        1 UNL1     0.0741
     69 H         -2.250491   -1.25157   1.833607 H        1 UNL1     0.0359
     70 H         -2.369859   -2.552539   0.019015 H        1 UNL1     0.0600
     71 H         -2.283075   -0.923342   -1.410285 H        1 UNL1     0.0348
     72 H         -0.657379   -2.385586   -2.483131 H        1 UNL1     0.0602
     73 H         3.385987   -2.384292   0.513957 H        1 UNL1     0.0628
     74 H         1.727328   -4.971127   0.380692 H        1 UNL1     0.1022
     75 H         4.755979   -0.806974   -10.184223 H        1 UNL1     0.0279
     76 H         4.767952   -2.302893   -11.030026 H        1 UNL1     0.0279
     77 H         3.2262   -1.449555   -10.617579 H        1 UNL1     0.0279
     78 H         6.098699   -0.889994   -8.465999 H        1 UNL1     0.1553
     79 H         4.61624   0.003541   -7.501564 H        1 UNL1     0.1484
     80 H         3.963133   1.538408   -4.087311 H        1 UNL1     0.0317
     81 H         5.520145   0.861679   -4.543026 H        1 UNL1     0.0317
     82 H         5.323883   1.816294   -6.854713 H        1 UNL1     0.0428
     83 H         5.210969   3.037585   -5.606753 H        1 UNL1     0.0428
     84 H         1.545196   1.718305   -7.316941 H        1 UNL1     0.0428
     85 H         2.988679   1.01238   -7.955023 H        1 UNL1     0.0428
     86 H         1.721762   -0.327773   -6.274618 H        1 UNL1     0.0317
     87 H         1.89554   0.850777   -5.056763 H        1 UNL1     0.0317
     88 H         3.387955   3.414939   -8.401546 H        1 UNL1     0.0429
     89 H         2.463624   4.328288   -7.206707 H        1 UNL1     0.0429
     90 H         5.356758   3.961293   -6.52242 H        1 UNL1     0.0308
     91 H         4.565232   5.081878   -9.202684 H        1 UNL1     0.0233
     92 H         5.741792   6.028622   -8.256704 H        1 UNL1     0.0233
     93 H         6.099484   4.375769   -8.709183 H        1 UNL1     0.0233
     94 H         5.174283   6.37558   -6.026439 H        1 UNL1     0.0233
     95 H         3.507953   6.349941   -6.623946 H        1 UNL1     0.0233
     96 H         3.951751   5.39768   -5.188595 H        1 UNL1     0.0233
     97 H         8.789315   -6.641248   -3.00478 H        1 UNL1     0.0280
     98 H         8.647842   -5.589397   -1.622469 H        1 UNL1     0.0280
     99 H         7.4034   -6.840264   -1.916452 H        1 UNL1     0.0280
     100 H         8.714259   -5.103621   -5.950338 H        1 UNL1     0.2922
     101 H         -0.930181   -4.226335   -3.731337 H        1 UNL1     0.0236
     102 H         -1.050995   -3.864797   -5.497903 H        1 UNL1     0.0236
     103 H         -1.986686   -2.985205   -4.329016 H        1 UNL1     0.0236
     104 H         -2.364105   -1.464634   -3.567254 H        1 UNL1     0.2098
     105 H         -0.261355   0.836138   -1.497784 H        1 UNL1     0.0234
     106 H         -1.478141   0.796938   -0.1905 H        1 UNL1     0.0234
     107 H         0.0   0.0   0.0 H        1 UNL1     0.0234
     108 H         -0.697402   -3.945929   0.609612 H        1 UNL1     0.2098
     109 H         1.419027   0.561203   0.24265 H        1 UNL1     0.0234
     110 H         3.035984   -0.100938   0.642425 H        1 UNL1     0.0234
     111 H         1.940776   -1.004114   -0.344303 H        1 UNL1     0.0234
     112 H         -3.572232   0.638674   1.401899 H        1 UNL1     0.0342
     113 H         -2.562651   1.873918   0.569337 H        1 UNL1     0.0342
     114 H         -2.061316   0.181017   0.596159 H        1 UNL1     0.0342
     115 H         -2.050226   -3.757889   2.366467 H        1 UNL1     0.0234
     116 H         -0.61832   -3.24767   3.266527 H        1 UNL1     0.0234
     117 H         -2.23687   -2.593713   3.592538 H        1 UNL1     0.0234
     118 H         5.593898   -3.488696   0.726426 H        1 UNL1     0.0309
     119 H         6.241634   -2.713088   -0.752402 H        1 UNL1     0.0309
     120 H         4.725621   -2.208922   -0.038483 H        1 UNL1     0.0309
     121 H         1.542792   -4.373256   4.041423 H        1 UNL1     0.0524
     122 H         0.735731   -5.481066   2.924166 H        1 UNL1     0.0524
     123 H         2.382537   -4.907223   2.560196 H        1 UNL1     0.0524
@<TRIPOS>BOND
     1     1     2    1
     2     1    42    1
     3     2     3    2
     4     3     4    1
     5     4     5    2
     6     5     7    1
     7     6    75    1
     8     6    76    1
     9     6    77    1
    10     7     9   am
    11     9    10    1
    12    10    11    2
    13    10    43    1
    14    11    14    1
    15    11    15    1
    16    12    13   ar
    17    12    27   ar
    18    12    43    1
    19    13    14    1
    20    13    30   ar
    21    14    17    2
    22    15    16    1
    23    16    17    1
    24    16    18    1
    25    16    22    1
    26    18    19    1
    27    19    20    1
    28    20    21    1
    29    21    22    1
    30    23    24    1
    31    23    88    1
    32    23    89    1
    33    24    25    1
    34    24    26    1
    35    24    90    1
    36    25    91    1
    37    25    92    1
    38    25    93    1
    39    26    94    1
    40    26    95    1
    41    26    96    1
    42    27    28   ar
    43    28    29   ar
    44    29    30   ar
    45    29    31    1
    46    30    33    1
    47    31    32    1
    48    32    33    1
    49    32    35    1
    50    34    97    1
    51    34    98    1
    52    34    99    1
    53    35    61    1
    54    36    37    1
    55    36    60    1
    56    37    38    1
    57    38    39    1
    58    39    40    1
    59    40    41    1
    60    41    42    1
    61    45   100    1
    62    47   101    1
    63    47   102    1
    64    47   103    1
    65    48   104    1
    66    49   105    1
    67    49   106    1
    68    49   107    1
    69    50   108    1
    70    51    59    1
    71    52   109    1
    72    52   110    1
    73    52   111    1
    74    53    54    1
    75    54    55    2
    76    54    56    1
    77    56   112    1
    78    56   113    1
    79    56   114    1
    80    57   115    1
    81    57   116    1
    82    57   117    1
    83    58   118    1
    84    58   119    1
    85    58   120    1
    86    59   121    1
    87    59   122    1
    88    59   123    1
    89    60    61    2
    90     1    47    1
    91     1    62    1
    92     2    63    1
    93     3    64    1
    94     4    65    1
    95     5     6    1
    96     7     8    2
    97     9    78    1
    98    15    79    1
    99    18    80    1
   100    18    81    1
   101    19    82    1
   102    19    83    1
   103    20    23    1
   104    21    84    1
   105    21    85    1
   106    22    86    1
   107    22    87    1
   108    27    45    1
   109    28    34    1
   110    32    58    1
   111    33    46    2
   112    36    51    1
   113    36    66    1
   114    37    52    1
   115    37    67    1
   116    38    53    1
   117    38    68    1
   118    42    48    1
   119    42    72    1
   120    43    44    2
   121    60    73    1
   122    61    74    1
   123    39    69    1
   124    39    57    1
   125    40    70    1
   126    40    50    1
   127    41    71    1
   128    41    49    1
