@<TRIPOS>MOLECULE
*****
 123 128 0 0 0
SMALL
GASTEIGER

@<TRIPOS>ATOM
     1 C         5.037567   2.054051   0.644563 C.3        1 UNL1     0.0009
     2 C         6.424191   2.994274   -0.149346 C.2        1 UNL1     -0.0787
     3 C         7.719794   3.014938   -0.795127 C.2        1 UNL1     -0.0649
     4 C         8.515911   4.338527   -1.48843 C.2        1 UNL1     -0.0542
     5 C         9.525947   4.740177   -2.397045 C.2        1 UNL1     0.0115
     6 C         10.709917   4.231881   -3.264901 C.3        1 UNL1     -0.0348
     7 C         9.52172   6.24861   -2.946226 C.2        1 UNL1     0.2441
     8 O         10.27744   7.112764   -2.523554 O.2        1 UNL1     -0.2702
     9 N         8.776257   6.445361   -4.121694 N.am        1 UNL1     -0.2772
     10 C         7.464065   6.725658   -3.816885 C.2        1 UNL1     0.1049
     11 C         6.687279   5.684971   -3.576475 C.2        1 UNL1     0.0801
     12 C         6.030297   8.178599   -2.370993 C.ar        1 UNL1     0.0753
     13 C         5.349081   6.982263   -1.979415 C.ar        1 UNL1     0.0305
     14 C         5.571033   5.714201   -2.670651 C.2        1 UNL1     0.0924
     15 N         6.909211   4.375471   -3.78259 N.pl3        1 UNL1     -0.3170
     16 C         5.681963   3.674158   -3.513748 C.3        1 UNL1     0.1275
     17 N         4.962549   4.542424   -2.510611 N.2        1 UNL1     -0.2557
     18 C         4.846395   3.719633   -4.789468 C.3        1 UNL1     0.0016
     19 C         5.666381   3.135893   -5.928968 C.3        1 UNL1     0.0026
     20 N         6.030729   1.767234   -5.589773 N.3        1 UNL1     -0.3018
     21 C         6.784839   1.61522   -4.343748 C.3        1 UNL1     0.0026
     22 C         5.940701   2.203928   -3.212046 C.3        1 UNL1     0.0016
     23 C         6.550831   1.025266   -6.720976 C.3        1 UNL1     0.0012
     24 C         5.431805   0.730484   -7.732233 C.3        1 UNL1     -0.0339
     25 C         5.638519   1.50829   -9.042326 C.3        1 UNL1     -0.0615
     26 C         5.333904   -0.764872   -7.979427 C.3        1 UNL1     -0.0615
     27 C         5.725252   9.406476   -1.788427 C.ar        1 UNL1     0.1347
     28 C         4.734555   9.568728   -0.836458 C.ar        1 UNL1     0.0342
     29 C         4.110955   8.369554   -0.431156 C.ar        1 UNL1     0.1435
     30 C         4.43127   7.127153   -0.979843 C.ar        1 UNL1     0.0774
     31 O         3.051587   8.374493   0.407129 O.3        1 UNL1     -0.4436
     32 C         2.424288   7.098933   0.20634 C.3        1 UNL1     0.3143
     33 C         3.515504   6.203088   -0.344043 C.2        1 UNL1     0.2504
     34 C         4.182314   10.880912   -0.353445 C.3        1 UNL1     -0.0327
     35 O         2.076599   6.587068   1.498763 O.2        1 UNL1     -0.4528
     36 C         -1.009979   4.441367   0.97237 C.3        1 UNL1     0.0854
     37 C         -1.208559   3.197299   0.023485 C.3        1 UNL1     0.0236
     38 C         -1.727149   1.866728   0.753136 C.3        1 UNL1     0.1131
     39 C         -0.984358   1.340324   2.046747 C.3        1 UNL1     0.0200
     40 C         0.682213   1.314191   2.112302 C.3        1 UNL1     0.0661
     41 C         1.712918   0.662363   0.93316 C.3        1 UNL1     0.0091
     42 C         3.397778   1.16919   0.413759 C.3        1 UNL1     0.0661
     43 C         7.009919   8.083495   -3.481649 C.2        1 UNL1     0.2131
     44 O         7.353898   9.035103   -4.159038 O.2        1 UNL1     -0.2851
     45 O         6.466484   10.514594   -2.193504 O.3        1 UNL1     -0.5056
     46 O         3.617516   4.999756   -0.257782 O.2        1 UNL1     -0.2836
     47 C         5.442384   1.599629   2.072711 C.3        1 UNL1     -0.0566
     48 O         3.947086   -0.207756   0.45113 O.3        1 UNL1     -0.3909
     49 C         0.916927   0.41759   -0.329369 C.3        1 UNL1     -0.0577
     50 O         1.185659   2.556423   2.56077 O.3        1 UNL1     -0.3910
     51 O         -1.140991   4.189982   2.353339 O.3        1 UNL1     -0.3753
     52 C         -0.137767   3.157318   -1.115266 C.3        1 UNL1     -0.0564
     53 O         -2.238376   0.822036   -0.195333 O.3        1 UNL1     -0.4608
     54 C         -2.378791   -0.510857   0.090341 C.2        1 UNL1     0.3042
     55 O         -1.639337   -1.430993   -0.25664 O.2        1 UNL1     -0.2512
     56 C         -3.553873   -0.815727   0.975187 C.3        1 UNL1     0.0332
     57 C         -1.771483   1.906407   3.318816 C.3        1 UNL1     -0.0567
     58 C         1.350644   7.306772   -0.887105 C.3        1 UNL1     0.0210
     59 C         -2.328936   4.711254   2.947416 C.3        1 UNL1     0.0372
     60 C         0.27278   5.173571   0.789163 C.2        1 UNL1     -0.0208
     61 C         1.138109   5.640227   1.690376 C.2        1 UNL1     0.0882
     62 H         4.489647   2.997039   0.759754 H        1 UNL1     0.0365
     63 H         6.07999   4.021171   -0.009786 H        1 UNL1     0.0576
     64 H         8.250264   2.093018   -1.043668 H        1 UNL1     0.0615
     65 H         7.957948   5.202211   -1.116664 H        1 UNL1     0.0622
     66 H         -1.802451   5.143257   0.676762 H        1 UNL1     0.0645
     67 H         -2.085033   3.466272   -0.591337 H        1 UNL1     0.0362
     68 H         -2.708879   2.219952   1.103796 H        1 UNL1     0.0741
     69 H         -1.24395   0.301097   2.198496 H        1 UNL1     0.0359
     70 H         0.828597   0.630414   2.970254 H        1 UNL1     0.0600
     71 H         1.824601   -0.368565   1.32261 H        1 UNL1     0.0348
     72 H         3.24159   1.610515   1.408823 H        1 UNL1     0.0602
     73 H         0.391664   5.418441   -0.23707 H        1 UNL1     0.0628
     74 H         1.119771   5.387991   2.751167 H        1 UNL1     0.1022
     75 H         11.512118   3.799908   -2.619219 H        1 UNL1     0.0279
     76 H         10.494042   3.414191   -3.948897 H        1 UNL1     0.0279
     77 H         11.250902   5.047905   -3.76604 H        1 UNL1     0.0279
     78 H         8.786048   5.593964   -4.679462 H        1 UNL1     0.1553
     79 H         7.613313   4.020843   -4.403406 H        1 UNL1     0.1484
     80 H         3.920769   3.153187   -4.630972 H        1 UNL1     0.0317
     81 H         4.548688   4.746842   -5.025821 H        1 UNL1     0.0317
     82 H         6.55934   3.742414   -6.14032 H        1 UNL1     0.0428
     83 H         5.052489   3.179686   -6.829117 H        1 UNL1     0.0428
     84 H         6.976429   0.572661   -4.071398 H        1 UNL1     0.0428
     85 H         7.786704   2.060708   -4.415332 H        1 UNL1     0.0428
     86 H         6.460202   1.95706   -2.304763 H        1 UNL1     0.0317
     87 H         4.997038   1.652063   -3.122368 H        1 UNL1     0.0317
     88 H         7.313041   1.643188   -7.213421 H        1 UNL1     0.0429
     89 H         7.046079   0.100608   -6.397692 H        1 UNL1     0.0429
     90 H         4.468997   1.026093   -7.298841 H        1 UNL1     0.0308
     91 H         6.673789   1.435758   -9.388818 H        1 UNL1     0.0233
     92 H         4.972011   1.134166   -9.822971 H        1 UNL1     0.0233
     93 H         5.413401   2.576192   -8.933962 H        1 UNL1     0.0233
     94 H         4.843922   -0.957635   -8.939946 H        1 UNL1     0.0233
     95 H         6.334917   -1.203597   -8.017577 H        1 UNL1     0.0233
     96 H         4.760078   -1.262656   -7.192724 H        1 UNL1     0.0233
     97 H         3.329998   10.746339   0.305856 H        1 UNL1     0.0280
     98 H         4.920622   11.453603   0.222908 H        1 UNL1     0.0280
     99 H         3.859362   11.485568   -1.216688 H        1 UNL1     0.0280
     100 H         5.950922   11.26674   -2.426088 H        1 UNL1     0.2922
     101 H         4.637456   1.011886   2.513513 H        1 UNL1     0.0236
     102 H         5.74517   2.42546   2.715599 H        1 UNL1     0.0236
     103 H         6.310818   0.920022   2.06047 H        1 UNL1     0.0236
     104 H         4.282796   -0.366958   1.354969 H        1 UNL1     0.2098
     105 H         0.688408   1.315851   -0.897452 H        1 UNL1     0.0234
     106 H         1.327896   -0.349818   -0.985202 H        1 UNL1     0.0234
     107 H         0.0   -0.0   0.0 H        1 UNL1     0.0234
     108 H         1.087708   3.191649   1.825473 H        1 UNL1     0.2098
     109 H         -0.183905   4.04535   -1.761009 H        1 UNL1     0.0234
     110 H         0.883686   3.028917   -0.741246 H        1 UNL1     0.0234
     111 H         -0.287386   2.297257   -1.781491 H        1 UNL1     0.0234
     112 H         -4.086765   -1.693391   0.596932 H        1 UNL1     0.0342
     113 H         -3.258885   -0.955461   2.014081 H        1 UNL1     0.0342
     114 H         -4.243067   0.039092   0.936944 H        1 UNL1     0.0342
     115 H         -2.845375   1.679608   3.268747 H        1 UNL1     0.0234
     116 H         -1.400537   1.529806   4.274127 H        1 UNL1     0.0234
     117 H         -1.788673   3.008652   3.370793 H        1 UNL1     0.0234
     118 H         0.326389   7.216242   -0.484969 H        1 UNL1     0.0309
     119 H         1.447592   8.264708   -1.407837 H        1 UNL1     0.0309
     120 H         1.386342   6.534656   -1.663422 H        1 UNL1     0.0309
     121 H         -2.123721   4.876335   4.004767 H        1 UNL1     0.0524
     122 H         -2.624368   5.680084   2.511383 H        1 UNL1     0.0524
     123 H         -3.147967   4.007339   2.829993 H        1 UNL1     0.0524
@<TRIPOS>BOND
     1     1     2    1
     2     1    42    1
     3     2     3    2
     4     3     4    1
     5     4     5    2
     6     5     7    1
     7     6    75    1
     8     6    76    1
     9     6    77    1
    10     7     9   am
    11     9    10    1
    12    10    11    2
    13    10    43    1
    14    11    14    1
    15    11    15    1
    16    12    13   ar
    17    12    27   ar
    18    12    43    1
    19    13    14    1
    20    13    30   ar
    21    14    17    2
    22    15    16    1
    23    16    17    1
    24    16    18    1
    25    16    22    1
    26    18    19    1
    27    19    20    1
    28    20    21    1
    29    21    22    1
    30    23    24    1
    31    23    88    1
    32    23    89    1
    33    24    25    1
    34    24    26    1
    35    24    90    1
    36    25    91    1
    37    25    92    1
    38    25    93    1
    39    26    94    1
    40    26    95    1
    41    26    96    1
    42    27    28   ar
    43    28    29   ar
    44    29    30   ar
    45    29    31    1
    46    30    33    1
    47    31    32    1
    48    32    33    1
    49    32    35    1
    50    34    97    1
    51    34    98    1
    52    34    99    1
    53    35    61    1
    54    36    37    1
    55    36    60    1
    56    37    38    1
    57    38    39    1
    58    39    40    1
    59    40    41    1
    60    41    42    1
    61    45   100    1
    62    47   101    1
    63    47   102    1
    64    47   103    1
    65    48   104    1
    66    49   105    1
    67    49   106    1
    68    49   107    1
    69    50   108    1
    70    51    59    1
    71    52   109    1
    72    52   110    1
    73    52   111    1
    74    53    54    1
    75    54    55    2
    76    54    56    1
    77    56   112    1
    78    56   113    1
    79    56   114    1
    80    57   115    1
    81    57   116    1
    82    57   117    1
    83    58   118    1
    84    58   119    1
    85    58   120    1
    86    59   121    1
    87    59   122    1
    88    59   123    1
    89    60    61    2
    90     1    47    1
    91     1    62    1
    92     2    63    1
    93     3    64    1
    94     4    65    1
    95     5     6    1
    96     7     8    2
    97     9    78    1
    98    15    79    1
    99    18    80    1
   100    18    81    1
   101    19    82    1
   102    19    83    1
   103    20    23    1
   104    21    84    1
   105    21    85    1
   106    22    86    1
   107    22    87    1
   108    27    45    1
   109    28    34    1
   110    32    58    1
   111    33    46    2
   112    36    51    1
   113    36    66    1
   114    37    52    1
   115    37    67    1
   116    38    53    1
   117    38    68    1
   118    42    48    1
   119    42    72    1
   120    43    44    2
   121    60    73    1
   122    61    74    1
   123    39    69    1
   124    39    57    1
   125    40    70    1
   126    40    50    1
   127    41    71    1
   128    41    49    1
