@<TRIPOS>MOLECULE
*****
 123 128 0 0 0
SMALL
GASTEIGER

@<TRIPOS>ATOM
     1 C         0.250722   0.016337   4.119619 C.3        1 UNL1     0.0009
     2 C         -0.9473   -0.720456   5.327476 C.2        1 UNL1     -0.0787
     3 C         -2.069304   -0.575573   6.230892 C.2        1 UNL1     -0.0649
     4 C         -2.889909   -1.792651   7.074507 C.2        1 UNL1     -0.0542
     5 C         -4.090175   -2.133259   7.745644 C.2        1 UNL1     0.0115
     6 C         -5.421029   -1.562273   8.307893 C.3        1 UNL1     -0.0348
     7 C         -4.427081   -3.6826   7.996699 C.2        1 UNL1     0.2441
     8 O         -4.271393   -4.230478   9.079342 O.2        1 UNL1     -0.2702
     9 N         -5.15608   -4.301306   6.966207 N.am        1 UNL1     -0.2772
     10 C         -4.303568   -4.809546   6.013192 C.2        1 UNL1     0.1049
     11 C         -3.870358   -3.954691   5.10447 C.2        1 UNL1     0.0801
     12 C         -2.248319   -6.207771   5.733451 C.ar        1 UNL1     0.0753
     13 C         -1.7348   -5.149984   4.917366 C.ar        1 UNL1     0.0305
     14 C         -2.583391   -4.047762   4.470096 C.2        1 UNL1     0.0924
     15 N         -4.285403   -2.707315   4.824616 N.pl3        1 UNL1     -0.3170
     16 C         -3.603007   -2.273828   3.634373 C.3        1 UNL1     0.1275
     17 N         -2.30668   -3.046637   3.639369 N.2        1 UNL1     -0.2557
     18 C         -4.400588   -2.792412   2.44163 C.3        1 UNL1     0.0016
     19 C         -5.832397   -2.295102   2.560769 C.3        1 UNL1     0.0026
     20 N         -5.820926   -0.83907   2.590256 N.3        1 UNL1     -0.3018
     21 C         -5.027203   -0.245284   3.668119 C.3        1 UNL1     0.0026
     22 C         -3.591824   -0.754695   3.526404 C.3        1 UNL1     0.0016
     23 C         -7.136424   -0.26081   2.401248 C.3        1 UNL1     0.0012
     24 C         -7.610444   -0.462428   0.953349 C.3        1 UNL1     -0.0339
     25 C         -8.504739   -1.706275   0.82244 C.3        1 UNL1     -0.0615
     26 C         -8.3158   0.787891   0.457411 C.3        1 UNL1     -0.0615
     27 C         -1.467276   -7.315255   6.055269 C.ar        1 UNL1     0.1347
     28 C         -0.17727   -7.49462   5.588617 C.ar        1 UNL1     0.0342
     29 C         0.324269   -6.417567   4.827316 C.ar        1 UNL1     0.1435
     30 C         -0.434088   -5.285331   4.527054 C.ar        1 UNL1     0.0774
     31 O         1.523986   -6.488971   4.210399 O.3        1 UNL1     -0.4436
     32 C         1.472087   -5.472784   3.197708 C.3        1 UNL1     0.3143
     33 C         0.426188   -4.487352   3.678573 C.2        1 UNL1     0.2504
     34 C         0.625974   -8.761954   5.682226 C.3        1 UNL1     -0.0327
     35 O         2.730565   -4.787855   3.216655 O.2        1 UNL1     -0.4528
     36 C         3.321708   -3.598551   -0.339212 C.3        1 UNL1     0.0854
     37 C         2.418768   -2.674446   -1.243785 C.3        1 UNL1     0.0236
     38 C         3.155502   -1.377391   -1.832526 C.3        1 UNL1     0.1131
     39 C         3.957939   -0.421348   -0.860751 C.3        1 UNL1     0.0200
     40 C         3.318097   0.010616   0.617913 C.3        1 UNL1     0.0661
     41 C         1.755383   0.613426   0.886531 C.3        1 UNL1     0.0091
     42 C         0.635412   0.417291   2.326184 C.3        1 UNL1     0.0661
     43 C         -3.669934   -6.12925   6.151909 C.2        1 UNL1     0.2131
     44 O         -4.325989   -7.097195   6.491632 O.2        1 UNL1     -0.2851
     45 O         -2.027235   -8.2783   6.892184 O.3        1 UNL1     -0.5056
     46 O         0.336182   -3.304951   3.434277 O.2        1 UNL1     -0.2836
     47 C         1.323282   0.85391   4.866659 C.3        1 UNL1     -0.0566
     48 O         0.296331   1.858878   2.403431 O.3        1 UNL1     -0.3909
     49 C         0.922964   0.381908   -0.354828 C.3        1 UNL1     -0.0577
     50 O         3.641816   -0.949134   1.603717 O.3        1 UNL1     -0.3910
     51 O         4.596686   -3.089875   -0.018103 O.3        1 UNL1     -0.3753
     52 C         0.939442   -2.632766   -0.739001 C.3        1 UNL1     -0.0564
     53 O         2.404313   -0.715707   -2.950656 O.3        1 UNL1     -0.4608
     54 C         2.574999   0.578862   -3.366453 C.2        1 UNL1     0.3042
     55 O         1.77875   1.510218   -3.255084 O.2        1 UNL1     -0.2512
     56 C         3.92563   0.844108   -3.968245 C.3        1 UNL1     0.0332
     57 C         5.493832   -0.865247   -0.907229 C.3        1 UNL1     -0.0567
     58 C         0.955387   -6.161453   1.913074 C.3        1 UNL1     0.0210
     59 C         5.594525   -4.081163   0.221754 C.3        1 UNL1     0.0372
     60 C         2.696626   -4.029507   0.940908 C.2        1 UNL1     -0.0208
     61 C         3.19706   -4.070646   2.176472 C.2        1 UNL1     0.0882
     62 H         0.681753   -0.980669   3.968282 H        1 UNL1     0.0365
     63 H         -0.570654   -1.743573   5.389438 H        1 UNL1     0.0576
     64 H         -2.611209   0.368254   6.323836 H        1 UNL1     0.0615
     65 H         -2.231361   -2.660908   6.985466 H        1 UNL1     0.0622
     66 H         3.459049   -4.51459   -0.930868 H        1 UNL1     0.0645
     67 H         2.258038   -3.270025   -2.159214 H        1 UNL1     0.0362
     68 H         3.918921   -1.866771   -2.456402 H        1 UNL1     0.0741
     69 H         4.095196   0.534699   -1.348134 H        1 UNL1     0.0359
     70 H         3.960122   0.879961   0.856874 H        1 UNL1     0.0600
     71 H         1.952926   1.701043   0.815647 H        1 UNL1     0.0348
     72 H         1.644704   0.179802   2.692579 H        1 UNL1     0.0602
     73 H         1.746207   -4.457424   0.73882 H        1 UNL1     0.0628
     74 H         4.135895   -3.604504   2.477366 H        1 UNL1     0.1022
     75 H         -5.485621   -0.463068   8.121852 H        1 UNL1     0.0279
     76 H         -6.337677   -1.931092   7.853141 H        1 UNL1     0.0279
     77 H         -5.469464   -1.599502   9.406059 H        1 UNL1     0.0279
     78 H         -5.752202   -3.614531   6.508981 H        1 UNL1     0.1553
     79 H         -5.176807   -2.341042   5.104213 H        1 UNL1     0.1484
     80 H         -3.929767   -2.439623   1.516085 H        1 UNL1     0.0317
     81 H         -4.382619   -3.886937   2.404978 H        1 UNL1     0.0317
     82 H         -6.333105   -2.705083   3.450218 H        1 UNL1     0.0428
     83 H         -6.383794   -2.677833   1.701392 H        1 UNL1     0.0428
     84 H         -4.969945   0.846619   3.620353 H        1 UNL1     0.0428
     85 H         -5.464023   -0.446581   4.656038 H        1 UNL1     0.0428
     86 H         -3.015688   -0.200354   4.243873 H        1 UNL1     0.0317
     87 H         -3.174061   -0.434991   2.563928 H        1 UNL1     0.0317
     88 H         -7.83564   -0.775937   3.07284 H        1 UNL1     0.0429
     89 H         -7.148554   0.801383   2.677607 H        1 UNL1     0.0429
     90 H         -6.73644   -0.590827   0.303854 H        1 UNL1     0.0308
     91 H         -9.376701   -1.640206   1.480027 H        1 UNL1     0.0233
     92 H         -8.842137   -1.83265   -0.208967 H        1 UNL1     0.0233
     93 H         -7.976293   -2.630262   1.086692 H        1 UNL1     0.0233
     94 H         -8.818253   0.585601   -0.494668 H        1 UNL1     0.0233
     95 H         -9.075284   1.099837   1.179794 H        1 UNL1     0.0233
     96 H         -7.611285   1.610932   0.308313 H        1 UNL1     0.0233
     97 H         1.59824   -8.664049   5.208576 H        1 UNL1     0.0280
     98 H         0.826141   -9.049133   6.722763 H        1 UNL1     0.0280
     99 H         0.080975   -9.581785   5.186293 H        1 UNL1     0.0280
     100 H         -2.010087   -9.153957   6.547867 H        1 UNL1     0.2922
     101 H         2.046229   1.246894   4.152119 H        1 UNL1     0.0236
     102 H         1.804779   0.308496   5.677626 H        1 UNL1     0.0236
     103 H         0.890484   1.747324   5.346962 H        1 UNL1     0.0236
     104 H         0.900181   2.269529   3.052817 H        1 UNL1     0.2098
     105 H         0.712488   1.280991   -0.928553 H        1 UNL1     0.0234
     106 H         1.292382   -0.406652   -1.010291 H        1 UNL1     0.0234
     107 H         0.0   -0.0   0.0 H        1 UNL1     0.0234
     108 H         3.205492   -1.784961   1.349194 H        1 UNL1     0.2098
     109 H         0.861511   -2.254705   0.289934 H        1 UNL1     0.0234
     110 H         0.277682   -2.054633   -1.392896 H        1 UNL1     0.0234
     111 H         0.489024   -3.634166   -0.722634 H        1 UNL1     0.0234
     112 H         3.997797   1.89251   -4.273188 H        1 UNL1     0.0342
     113 H         4.735383   0.577675   -3.290634 H        1 UNL1     0.0342
     114 H         4.027695   0.22354   -4.869158 H        1 UNL1     0.0342
     115 H         5.913826   -0.777685   -1.918726 H        1 UNL1     0.0234
     116 H         6.140069   -0.299412   -0.233242 H        1 UNL1     0.0234
     117 H         5.647687   -1.939169   -0.70484 H        1 UNL1     0.0234
     118 H         1.763891   -6.675482   1.364346 H        1 UNL1     0.0309
     119 H         0.14384   -6.871116   2.102738 H        1 UNL1     0.0309
     120 H         0.567471   -5.446148   1.179613 H        1 UNL1     0.0309
     121 H         5.275346   -4.668838   1.082055 H        1 UNL1     0.0524
     122 H         5.709552   -4.773393   -0.628906 H        1 UNL1     0.0524
     123 H         6.551869   -3.609444   0.424407 H        1 UNL1     0.0524
@<TRIPOS>BOND
     1     1     2    1
     2     1    42    1
     3     2     3    2
     4     3     4    1
     5     4     5    2
     6     5     7    1
     7     6    75    1
     8     6    76    1
     9     6    77    1
    10     7     9   am
    11     9    10    1
    12    10    11    2
    13    10    43    1
    14    11    14    1
    15    11    15    1
    16    12    13   ar
    17    12    27   ar
    18    12    43    1
    19    13    14    1
    20    13    30   ar
    21    14    17    2
    22    15    16    1
    23    16    17    1
    24    16    18    1
    25    16    22    1
    26    18    19    1
    27    19    20    1
    28    20    21    1
    29    21    22    1
    30    23    24    1
    31    23    88    1
    32    23    89    1
    33    24    25    1
    34    24    26    1
    35    24    90    1
    36    25    91    1
    37    25    92    1
    38    25    93    1
    39    26    94    1
    40    26    95    1
    41    26    96    1
    42    27    28   ar
    43    28    29   ar
    44    29    30   ar
    45    29    31    1
    46    30    33    1
    47    31    32    1
    48    32    33    1
    49    32    35    1
    50    34    97    1
    51    34    98    1
    52    34    99    1
    53    35    61    1
    54    36    37    1
    55    36    60    1
    56    37    38    1
    57    38    39    1
    58    39    40    1
    59    40    41    1
    60    41    42    1
    61    45   100    1
    62    47   101    1
    63    47   102    1
    64    47   103    1
    65    48   104    1
    66    49   105    1
    67    49   106    1
    68    49   107    1
    69    50   108    1
    70    51    59    1
    71    52   109    1
    72    52   110    1
    73    52   111    1
    74    53    54    1
    75    54    55    2
    76    54    56    1
    77    56   112    1
    78    56   113    1
    79    56   114    1
    80    57   115    1
    81    57   116    1
    82    57   117    1
    83    58   118    1
    84    58   119    1
    85    58   120    1
    86    59   121    1
    87    59   122    1
    88    59   123    1
    89    60    61    2
    90     1    47    1
    91     1    62    1
    92     2    63    1
    93     3    64    1
    94     4    65    1
    95     5     6    1
    96     7     8    2
    97     9    78    1
    98    15    79    1
    99    18    80    1
   100    18    81    1
   101    19    82    1
   102    19    83    1
   103    20    23    1
   104    21    84    1
   105    21    85    1
   106    22    86    1
   107    22    87    1
   108    27    45    1
   109    28    34    1
   110    32    58    1
   111    33    46    2
   112    36    51    1
   113    36    66    1
   114    37    52    1
   115    37    67    1
   116    38    53    1
   117    38    68    1
   118    42    48    1
   119    42    72    1
   120    43    44    2
   121    60    73    1
   122    61    74    1
   123    39    69    1
   124    39    57    1
   125    40    70    1
   126    40    50    1
   127    41    71    1
   128    41    49    1
