@<TRIPOS>MOLECULE
*****
 123 128 0 0 0
SMALL
GASTEIGER

@<TRIPOS>ATOM
     1 C         2.370347   -4.500759   1.784327 C.3        1 UNL1     0.0009
     2 C         3.204271   -5.33471   3.214758 C.2        1 UNL1     -0.0787
     3 C         4.409042   -5.674969   3.941942 C.2        1 UNL1     -0.0649
     4 C         4.535814   -6.464986   5.433974 C.2        1 UNL1     -0.0542
     5 C         5.372774   -6.710367   6.550381 C.2        1 UNL1     0.0115
     6 C         6.818068   -6.54957   7.096817 C.3        1 UNL1     -0.0348
     7 C         4.714484   -7.251731   7.910736 C.2        1 UNL1     0.2441
     8 O         4.7745   -8.42292   8.258932 O.2        1 UNL1     -0.2702
     9 N         4.292394   -6.248724   8.800663 N.am        1 UNL1     -0.2772
     10 C         3.000331   -5.868973   8.518377 C.2        1 UNL1     0.1049
     11 C         2.85254   -4.981717   7.551342 C.2        1 UNL1     0.0801
     12 C         0.714511   -6.785312   8.07942 C.ar        1 UNL1     0.0753
     13 C         0.689013   -5.951431   6.916407 C.ar        1 UNL1     0.0305
     14 C         1.704008   -4.9254   6.688162 C.2        1 UNL1     0.0924
     15 N         3.769944   -4.222691   6.927821 N.pl3        1 UNL1     -0.3170
     16 C         3.070016   -3.300101   6.073899 C.3        1 UNL1     0.1275
     17 N         1.781905   -4.007022   5.729287 N.2        1 UNL1     -0.2557
     18 C         2.67829   -2.099622   6.930113 C.3        1 UNL1     0.0016
     19 C         3.932977   -1.531151   7.573689 C.3        1 UNL1     0.0026
     20 N         4.863454   -1.143657   6.522456 N.3        1 UNL1     -0.3018
     21 C         5.251824   -2.219659   5.608259 C.3        1 UNL1     0.0026
     22 C         3.976752   -2.772987   4.969577 C.3        1 UNL1     0.0016
     23 C         5.954341   -0.322922   7.009287 C.3        1 UNL1     0.0012
     24 C         7.274969   -1.108215   6.977466 C.3        1 UNL1     -0.0339
     25 C         7.823695   -1.227954   5.546166 C.3        1 UNL1     -0.0615
     26 C         8.285555   -0.465717   7.911646 C.3        1 UNL1     -0.0615
     27 C         -0.320503   -7.676998   8.351011 C.ar        1 UNL1     0.1347
     28 C         -1.447626   -7.794709   7.557418 C.ar        1 UNL1     0.0342
     29 C         -1.428015   -6.999245   6.392078 C.ar        1 UNL1     0.1435
     30 C         -0.381269   -6.127911   6.088237 C.ar        1 UNL1     0.0774
     31 O         -2.500827   -6.919773   5.574909 O.3        1 UNL1     -0.4436
     32 C         -2.295218   -5.714484   4.822661 C.3        1 UNL1     0.3143
     33 C         -0.800704   -5.468564   4.869179 C.2        1 UNL1     0.2504
     34 C         -2.703946   -8.538929   7.915043 C.3        1 UNL1     -0.0327
     35 O         -2.628558   -6.001408   3.458912 O.2        1 UNL1     -0.4528
     36 C         -3.893282   -2.73867   1.988163 C.3        1 UNL1     0.0854
     37 C         -3.170529   -1.339679   1.898849 C.3        1 UNL1     0.0236
     38 C         -3.076204   -0.720726   0.422453 C.3        1 UNL1     0.1131
     39 C         -2.512723   -1.602313   -0.763955 C.3        1 UNL1     0.0200
     40 C         -1.155743   -2.547099   -0.543905 C.3        1 UNL1     0.0661
     41 C         0.316226   -2.031834   0.123491 C.3        1 UNL1     0.0091
     42 C         1.552869   -2.944328   1.125226 C.3        1 UNL1     0.0661
     43 C         1.836454   -6.605161   9.033909 C.2        1 UNL1     0.2131
     44 O         1.785288   -6.939655   10.203623 O.2        1 UNL1     -0.2851
     45 O         -0.196538   -8.484869   9.479467 O.3        1 UNL1     -0.5056
     46 O         -0.108597   -4.880133   4.068809 O.2        1 UNL1     -0.2836
     47 C         2.587374   -5.31802   0.482419 C.3        1 UNL1     -0.0566
     48 O         2.712764   -2.473157   0.330394 O.3        1 UNL1     -0.3909
     49 C         0.105523   -0.693125   0.795024 C.3        1 UNL1     -0.0577
     50 O         -1.505821   -3.813253   -0.022348 O.3        1 UNL1     -0.3910
     51 O         -4.208045   -3.349171   0.757049 O.3        1 UNL1     -0.3753
     52 C         -1.996175   -1.224943   2.92485 C.3        1 UNL1     -0.0564
     53 O         -2.712978   0.735311   0.403743 O.3        1 UNL1     -0.4608
     54 C         -1.902414   1.340778   -0.520554 C.2        1 UNL1     0.3042
     55 O         -0.727243   1.676038   -0.377685 O.2        1 UNL1     -0.2512
     56 C         -2.55951   1.542464   -1.856316 C.3        1 UNL1     0.0332
     57 C         -3.763954   -2.258237   -1.513861 C.3        1 UNL1     -0.0567
     58 C         -3.010977   -4.585815   5.600687 C.3        1 UNL1     0.0210
     59 C         -5.596064   -3.351055   0.426495 C.3        1 UNL1     0.0372
     60 C         -3.185304   -3.761173   2.80573 C.2        1 UNL1     -0.0208
     61 C         -2.945392   -5.049878   2.559915 C.2        1 UNL1     0.0882
     62 H         1.40131   -4.813024   2.191965 H        1 UNL1     0.0365
     63 H         2.351477   -5.822694   3.691291 H        1 UNL1     0.0576
     64 H         5.3856   -5.285269   3.646009 H        1 UNL1     0.0615
     65 H         3.537028   -6.879708   5.594958 H        1 UNL1     0.0622
     66 H         -4.834551   -2.529873   2.515859 H        1 UNL1     0.0645
     67 H         -3.875144   -0.642414   2.384542 H        1 UNL1     0.0362
     68 H         -4.14817   -0.593235   0.207614 H        1 UNL1     0.0741
     69 H         -2.217606   -0.948408   -1.573723 H        1 UNL1     0.0359
     70 H         -0.889229   -2.746814   -1.599436 H        1 UNL1     0.0600
     71 H         0.851402   -1.730407   -0.798293 H        1 UNL1     0.0348
     72 H         0.949723   -3.710399   0.616632 H        1 UNL1     0.0602
     73 H         -2.964239   -3.35299   3.760595 H        1 UNL1     0.0628
     74 H         -3.089082   -5.530067   1.591406 H        1 UNL1     0.1022
     75 H         7.564162   -6.884881   6.336591 H        1 UNL1     0.0279
     76 H         7.144579   -5.535002   7.313871 H        1 UNL1     0.0279
     77 H         7.035979   -7.232997   7.93057 H        1 UNL1     0.0279
     78 H         4.883336   -5.426738   8.694811 H        1 UNL1     0.1553
     79 H         4.682608   -4.033958   7.299785 H        1 UNL1     0.1484
     80 H         2.180903   -1.355518   6.296331 H        1 UNL1     0.0317
     81 H         1.955681   -2.387976   7.701048 H        1 UNL1     0.0317
     82 H         4.395728   -2.2487   8.267156 H        1 UNL1     0.0428
     83 H         3.630611   -0.677436   8.180975 H        1 UNL1     0.0428
     84 H         5.88706   -1.885395   4.782091 H        1 UNL1     0.0428
     85 H         5.853367   -2.987997   6.113352 H        1 UNL1     0.0428
     86 H         4.306706   -3.461295   4.2137 H        1 UNL1     0.0317
     87 H         3.473937   -1.986079   4.394209 H        1 UNL1     0.0317
     88 H         6.049123   0.547268   6.346656 H        1 UNL1     0.0429
     89 H         5.746004   0.060842   8.01631 H        1 UNL1     0.0429
     90 H         7.102545   -2.117038   7.370861 H        1 UNL1     0.0308
     91 H         7.931226   -2.275083   5.247739 H        1 UNL1     0.0233
     92 H         7.167195   -0.718498   4.836891 H        1 UNL1     0.0233
     93 H         8.811052   -0.763104   5.437182 H        1 UNL1     0.0233
     94 H         9.302599   -0.751013   7.621707 H        1 UNL1     0.0233
     95 H         8.210723   0.623625   7.850849 H        1 UNL1     0.0233
     96 H         8.122598   -0.773423   8.948338 H        1 UNL1     0.0233
     97 H         -3.57653   -7.892577   7.90759 H        1 UNL1     0.0280
     98 H         -2.922537   -9.34713   7.204912 H        1 UNL1     0.0280
     99 H         -2.602455   -8.970846   8.924123 H        1 UNL1     0.0280
     100 H         0.630289   -8.927918   9.554885 H        1 UNL1     0.2922
     101 H         1.672598   -5.852436   0.226994 H        1 UNL1     0.0236
     102 H         3.449075   -5.982828   0.532267 H        1 UNL1     0.0236
     103 H         2.783757   -4.668115   -0.386633 H        1 UNL1     0.0236
     104 H         2.439226   -2.453733   -0.607567 H        1 UNL1     0.2098
     105 H         -0.789948   -0.634472   1.408622 H        1 UNL1     0.0234
     106 H         0.967555   -0.320435   1.348133 H        1 UNL1     0.0234
     107 H         0.0   0.0   0.0 H        1 UNL1     0.0234
     108 H         -1.13666   -4.487363   -0.624897 H        1 UNL1     0.2098
     109 H         -2.340048   -1.326125   3.963708 H        1 UNL1     0.0234
     110 H         -1.187704   -1.939213   2.735281 H        1 UNL1     0.0234
     111 H         -1.50406   -0.244828   2.868776 H        1 UNL1     0.0234
     112 H         -1.854642   2.009066   -2.551146 H        1 UNL1     0.0342
     113 H         -2.952287   0.612271   -2.264129 H        1 UNL1     0.0342
     114 H         -3.405508   2.230535   -1.722111 H        1 UNL1     0.0342
     115 H         -3.464734   -3.111897   -2.137496 H        1 UNL1     0.0234
     116 H         -4.553195   -2.602619   -0.842632 H        1 UNL1     0.0234
     117 H         -4.222818   -1.594678   -2.266904 H        1 UNL1     0.0234
     118 H         -4.041384   -4.422184   5.239452 H        1 UNL1     0.0309
     119 H         -3.033297   -4.756483   6.681695 H        1 UNL1     0.0309
     120 H         -2.535152   -3.609483   5.457603 H        1 UNL1     0.0309
     121 H         -5.775078   -4.194224   -0.240121 H        1 UNL1     0.0524
     122 H         -6.237153   -3.487095   1.313363 H        1 UNL1     0.0524
     123 H         -5.866679   -2.42075   -0.064824 H        1 UNL1     0.0524
@<TRIPOS>BOND
     1     1     2    1
     2     1    42    1
     3     2     3    2
     4     3     4    1
     5     4     5    2
     6     5     7    1
     7     6    75    1
     8     6    76    1
     9     6    77    1
    10     7     9   am
    11     9    10    1
    12    10    11    2
    13    10    43    1
    14    11    14    1
    15    11    15    1
    16    12    13   ar
    17    12    27   ar
    18    12    43    1
    19    13    14    1
    20    13    30   ar
    21    14    17    2
    22    15    16    1
    23    16    17    1
    24    16    18    1
    25    16    22    1
    26    18    19    1
    27    19    20    1
    28    20    21    1
    29    21    22    1
    30    23    24    1
    31    23    88    1
    32    23    89    1
    33    24    25    1
    34    24    26    1
    35    24    90    1
    36    25    91    1
    37    25    92    1
    38    25    93    1
    39    26    94    1
    40    26    95    1
    41    26    96    1
    42    27    28   ar
    43    28    29   ar
    44    29    30   ar
    45    29    31    1
    46    30    33    1
    47    31    32    1
    48    32    33    1
    49    32    35    1
    50    34    97    1
    51    34    98    1
    52    34    99    1
    53    35    61    1
    54    36    37    1
    55    36    60    1
    56    37    38    1
    57    38    39    1
    58    39    40    1
    59    40    41    1
    60    41    42    1
    61    45   100    1
    62    47   101    1
    63    47   102    1
    64    47   103    1
    65    48   104    1
    66    49   105    1
    67    49   106    1
    68    49   107    1
    69    50   108    1
    70    51    59    1
    71    52   109    1
    72    52   110    1
    73    52   111    1
    74    53    54    1
    75    54    55    2
    76    54    56    1
    77    56   112    1
    78    56   113    1
    79    56   114    1
    80    57   115    1
    81    57   116    1
    82    57   117    1
    83    58   118    1
    84    58   119    1
    85    58   120    1
    86    59   121    1
    87    59   122    1
    88    59   123    1
    89    60    61    2
    90     1    47    1
    91     1    62    1
    92     2    63    1
    93     3    64    1
    94     4    65    1
    95     5     6    1
    96     7     8    2
    97     9    78    1
    98    15    79    1
    99    18    80    1
   100    18    81    1
   101    19    82    1
   102    19    83    1
   103    20    23    1
   104    21    84    1
   105    21    85    1
   106    22    86    1
   107    22    87    1
   108    27    45    1
   109    28    34    1
   110    32    58    1
   111    33    46    2
   112    36    51    1
   113    36    66    1
   114    37    52    1
   115    37    67    1
   116    38    53    1
   117    38    68    1
   118    42    48    1
   119    42    72    1
   120    43    44    2
   121    60    73    1
   122    61    74    1
   123    39    69    1
   124    39    57    1
   125    40    70    1
   126    40    50    1
   127    41    71    1
   128    41    49    1
