@<TRIPOS>MOLECULE
*****
 123 128 0 0 0
SMALL
GASTEIGER

@<TRIPOS>ATOM
     1 C         4.282776   -2.678738   1.194436 C.3        1 UNL1     0.0009
     2 C         6.039052   -2.839185   0.622782 C.2        1 UNL1     -0.0787
     3 C         7.101351   -3.627263   0.03414 C.2        1 UNL1     -0.0649
     4 C         8.659599   -3.1204   -0.391665 C.2        1 UNL1     -0.0542
     5 C         9.799024   -3.409479   -1.182374 C.2        1 UNL1     0.0115
     6 C         10.461772   -4.486036   -2.08521 C.3        1 UNL1     -0.0348
     7 C         10.867255   -2.244046   -1.46101 C.2        1 UNL1     0.2441
     8 O         11.9352   -2.164953   -0.8696 O.2        1 UNL1     -0.2702
     9 N         10.612219   -1.473406   -2.608713 N.am        1 UNL1     -0.2772
     10 C         9.784136   -0.417606   -2.303941 C.2        1 UNL1     0.1049
     11 C         8.490574   -0.68224   -2.274096 C.2        1 UNL1     0.0801
     12 C         9.477369   1.457099   -0.676454 C.ar        1 UNL1     0.0753
     13 C         8.130518   0.998142   -0.521666 C.ar        1 UNL1     0.0305
     14 C         7.55691   -0.005979   -1.414842 C.2        1 UNL1     0.0924
     15 N         7.82106   -1.768255   -2.697002 N.pl3        1 UNL1     -0.3170
     16 C         6.414181   -1.484351   -2.595299 C.3        1 UNL1     0.1275
     17 N         6.31272   -0.471287   -1.481239 N.2        1 UNL1     -0.2557
     18 C         6.007082   -0.753156   -3.870966 C.3        1 UNL1     0.0016
     19 C         6.389576   -1.611124   -5.066449 C.3        1 UNL1     0.0026
     20 N         5.709223   -2.894253   -4.958155 N.3        1 UNL1     -0.3018
     21 C         5.990144   -3.645465   -3.732948 C.3        1 UNL1     0.0026
     22 C         5.594178   -2.766779   -2.545086 C.3        1 UNL1     0.0016
     23 C         5.764712   -3.667126   -6.182995 C.3        1 UNL1     0.0012
     24 C         6.434781   -5.027152   -5.93181 C.3        1 UNL1     -0.0339
     25 C         5.396923   -6.113772   -5.60598 C.3        1 UNL1     -0.0615
     26 C         7.292711   -5.413149   -7.124179 C.3        1 UNL1     -0.0615
     27 C         9.978469   2.499273   0.100005 C.ar        1 UNL1     0.1347
     28 C         9.218683   3.183517   1.031984 C.ar        1 UNL1     0.0342
     29 C         7.910597   2.682253   1.201718 C.ar        1 UNL1     0.1435
     30 C         7.406423   1.615568   0.456591 C.ar        1 UNL1     0.0774
     31 O         7.01251   3.309637   1.992182 O.3        1 UNL1     -0.4436
     32 C         5.737068   2.819379   1.55199 C.3        1 UNL1     0.3143
     33 C         6.031084   1.487794   0.891196 C.2        1 UNL1     0.2504
     34 C         9.606734   4.464337   1.716832 C.3        1 UNL1     -0.0327
     35 O         4.960205   2.541258   2.723478 O.2        1 UNL1     -0.4528
     36 C         1.340317   3.103593   1.729355 C.3        1 UNL1     0.0854
     37 C         0.508197   2.427417   0.572685 C.3        1 UNL1     0.0236
     38 C         -0.854714   1.724821   1.042341 C.3        1 UNL1     0.1131
     39 C         -0.83552   0.702106   2.248971 C.3        1 UNL1     0.0200
     40 C         0.369495   -0.44549   2.364733 C.3        1 UNL1     0.0661
     41 C         0.86845   -1.490885   1.125458 C.3        1 UNL1     0.0091
     42 C         2.520784   -2.198463   0.758681 C.3        1 UNL1     0.0661
     43 C         10.295643   0.846331   -1.753326 C.2        1 UNL1     0.2131
     44 O         11.27249   1.383466   -2.243218 O.2        1 UNL1     -0.2851
     45 O         11.313462   2.854701   -0.081387 O.3        1 UNL1     -0.5056
     46 O         5.301555   0.529112   0.770484 O.2        1 UNL1     -0.2836
     47 C         4.080622   -3.435628   2.534673 C.3        1 UNL1     -0.0566
     48 O         2.014324   -3.580039   0.574664 O.3        1 UNL1     -0.3909
     49 C         0.297525   -1.000192   -0.186319 C.3        1 UNL1     -0.0577
     50 O         1.496441   0.077386   3.038763 O.3        1 UNL1     -0.3910
     51 O         0.882642   2.860926   3.040491 O.3        1 UNL1     -0.3753
     52 C         1.434127   1.798637   -0.519212 C.3        1 UNL1     -0.0564
     53 O         -1.786579   1.40494   -0.08975 O.3        1 UNL1     -0.4608
     54 C         -1.805379   2.035232   -1.30643 C.2        1 UNL1     0.3042
     55 O         -2.441886   1.708107   -2.307273 O.2        1 UNL1     -0.2512
     56 C         -0.981291   3.290625   -1.346182 C.3        1 UNL1     0.0332
     57 C         -1.224109   1.510942   3.572964 C.3        1 UNL1     -0.0567
     58 C         5.235231   3.810261   0.475959 C.3        1 UNL1     0.0210
     59 C         1.274016   3.839169   4.00264 C.3        1 UNL1     0.0372
     60 C         2.796458   2.795842   1.719161 C.2        1 UNL1     -0.0208
     61 C         3.615876   2.459324   2.716184 C.2        1 UNL1     0.0882
     62 H         4.482815   -1.631982   1.453275 H        1 UNL1     0.0365
     63 H         6.441458   -1.870686   0.927 H        1 UNL1     0.0576
     64 H         6.921151   -4.632678   -0.35287 H        1 UNL1     0.0615
     65 H         8.763696   -2.152214   0.105591 H        1 UNL1     0.0622
     66 H         1.258905   4.182101   1.533808 H        1 UNL1     0.0645
     67 H         0.124657   3.279485   -0.015054 H        1 UNL1     0.0362
     68 H         -1.397045   2.606751   1.415969 H        1 UNL1     0.0741
     69 H         -1.733407   0.099927   2.209117 H        1 UNL1     0.0359
     70 H         -0.094094   -1.135746   3.095276 H        1 UNL1     0.0600
     71 H         0.216772   -2.362104   1.333425 H        1 UNL1     0.0348
     72 H         2.555403   -1.876086   1.809486 H        1 UNL1     0.0602
     73 H         3.190722   3.004191   0.755628 H        1 UNL1     0.0628
     74 H         3.28617   2.174249   3.715816 H        1 UNL1     0.1022
     75 H         9.698337   -4.974757   -2.737401 H        1 UNL1     0.0279
     76 H         11.193407   -4.130244   -2.807146 H        1 UNL1     0.0279
     77 H         10.840863   -5.345773   -1.513508 H        1 UNL1     0.0279
     78 H         10.137449   -2.043939   -3.305249 H        1 UNL1     0.1553
     79 H         8.195514   -2.435666   -3.346062 H        1 UNL1     0.1484
     80 H         4.927532   -0.561768   -3.844347 H        1 UNL1     0.0317
     81 H         6.497202   0.224247   -3.935123 H        1 UNL1     0.0317
     82 H         7.47886   -1.745573   -5.139224 H        1 UNL1     0.0428
     83 H         6.092071   -1.07026   -5.965341 H        1 UNL1     0.0428
     84 H         5.406407   -4.566521   -3.63958 H        1 UNL1     0.0428
     85 H         7.034058   -3.985939   -3.692486 H        1 UNL1     0.0428
     86 H         5.687147   -3.393536   -1.677606 H        1 UNL1     0.0317
     87 H         4.520636   -2.545263   -2.584269 H        1 UNL1     0.0317
     88 H         4.735712   -3.84205   -6.523371 H        1 UNL1     0.0429
     89 H         6.277653   -3.114243   -6.980481 H        1 UNL1     0.0429
     90 H         7.12384   -4.936897   -5.083716 H        1 UNL1     0.0308
     91 H         5.863456   -7.100904   -5.535134 H        1 UNL1     0.0233
     92 H         4.885733   -5.890443   -4.666609 H        1 UNL1     0.0233
     93 H         4.613927   -6.186097   -6.37052 H        1 UNL1     0.0233
     94 H         8.1022   -6.079512   -6.807124 H        1 UNL1     0.0233
     95 H         6.687529   -5.945757   -7.863128 H        1 UNL1     0.0233
     96 H         7.735512   -4.533012   -7.598789 H        1 UNL1     0.0233
     97 H         8.891759   5.259749   1.528787 H        1 UNL1     0.0280
     98 H         9.652146   4.352843   2.808053 H        1 UNL1     0.0280
     99 H         10.59359   4.793441   1.352276 H        1 UNL1     0.0280
     100 H         11.84199   2.80082   0.695387 H        1 UNL1     0.2922
     101 H         3.115868   -3.168885   2.965666 H        1 UNL1     0.0236
     102 H         4.898461   -3.286365   3.238833 H        1 UNL1     0.0236
     103 H         4.030161   -4.527742   2.389991 H        1 UNL1     0.0236
     104 H         1.046628   -3.559827   0.709304 H        1 UNL1     0.2098
     105 H         1.008154   -0.988177   -1.00892 H        1 UNL1     0.0234
     106 H         -0.626545   -1.490358   -0.49252 H        1 UNL1     0.0234
     107 H         -0.0   0.0   0.0 H        1 UNL1     0.0234
     108 H         1.356826   1.039225   3.134374 H        1 UNL1     0.2098
     109 H         2.477468   1.717839   -0.183619 H        1 UNL1     0.0234
     110 H         1.084908   0.821084   -0.868756 H        1 UNL1     0.0234
     111 H         1.461324   2.412611   -1.42929 H        1 UNL1     0.0234
     112 H         -0.213896   3.256887   -0.566879 H        1 UNL1     0.0342
     113 H         -0.536143   3.457457   -2.325903 H        1 UNL1     0.0342
     114 H         -1.642091   4.141755   -1.131505 H        1 UNL1     0.0342
     115 H         -2.214884   1.223581   3.951088 H        1 UNL1     0.0234
     116 H         -0.512338   1.390075   4.392002 H        1 UNL1     0.0234
     117 H         -1.366481   2.591924   3.402231 H        1 UNL1     0.0234
     118 H         5.904604   4.681957   0.370641 H        1 UNL1     0.0309
     119 H         5.096047   3.344989   -0.505037 H        1 UNL1     0.0309
     120 H         4.271794   4.261714   0.736888 H        1 UNL1     0.0309
     121 H         0.41179   4.040249   4.637847 H        1 UNL1     0.0524
     122 H         2.089885   3.482925   4.653397 H        1 UNL1     0.0524
     123 H         1.592885   4.750141   3.504094 H        1 UNL1     0.0524
@<TRIPOS>BOND
     1     1     2    1
     2     1    42    1
     3     2     3    2
     4     3     4    1
     5     4     5    2
     6     5     7    1
     7     6    75    1
     8     6    76    1
     9     6    77    1
    10     7     9   am
    11     9    10    1
    12    10    11    2
    13    10    43    1
    14    11    14    1
    15    11    15    1
    16    12    13   ar
    17    12    27   ar
    18    12    43    1
    19    13    14    1
    20    13    30   ar
    21    14    17    2
    22    15    16    1
    23    16    17    1
    24    16    18    1
    25    16    22    1
    26    18    19    1
    27    19    20    1
    28    20    21    1
    29    21    22    1
    30    23    24    1
    31    23    88    1
    32    23    89    1
    33    24    25    1
    34    24    26    1
    35    24    90    1
    36    25    91    1
    37    25    92    1
    38    25    93    1
    39    26    94    1
    40    26    95    1
    41    26    96    1
    42    27    28   ar
    43    28    29   ar
    44    29    30   ar
    45    29    31    1
    46    30    33    1
    47    31    32    1
    48    32    33    1
    49    32    35    1
    50    34    97    1
    51    34    98    1
    52    34    99    1
    53    35    61    1
    54    36    37    1
    55    36    60    1
    56    37    38    1
    57    38    39    1
    58    39    40    1
    59    40    41    1
    60    41    42    1
    61    45   100    1
    62    47   101    1
    63    47   102    1
    64    47   103    1
    65    48   104    1
    66    49   105    1
    67    49   106    1
    68    49   107    1
    69    50   108    1
    70    51    59    1
    71    52   109    1
    72    52   110    1
    73    52   111    1
    74    53    54    1
    75    54    55    2
    76    54    56    1
    77    56   112    1
    78    56   113    1
    79    56   114    1
    80    57   115    1
    81    57   116    1
    82    57   117    1
    83    58   118    1
    84    58   119    1
    85    58   120    1
    86    59   121    1
    87    59   122    1
    88    59   123    1
    89    60    61    2
    90     1    47    1
    91     1    62    1
    92     2    63    1
    93     3    64    1
    94     4    65    1
    95     5     6    1
    96     7     8    2
    97     9    78    1
    98    15    79    1
    99    18    80    1
   100    18    81    1
   101    19    82    1
   102    19    83    1
   103    20    23    1
   104    21    84    1
   105    21    85    1
   106    22    86    1
   107    22    87    1
   108    27    45    1
   109    28    34    1
   110    32    58    1
   111    33    46    2
   112    36    51    1
   113    36    66    1
   114    37    52    1
   115    37    67    1
   116    38    53    1
   117    38    68    1
   118    42    48    1
   119    42    72    1
   120    43    44    2
   121    60    73    1
   122    61    74    1
   123    39    69    1
   124    39    57    1
   125    40    70    1
   126    40    50    1
   127    41    71    1
   128    41    49    1
