@<TRIPOS>MOLECULE
*****
 123 128 0 0 0
SMALL
GASTEIGER

@<TRIPOS>ATOM
     1 C         -3.12863   -2.018211   -2.027191 C.3        1 UNL1     0.0009
     2 C         -3.008013   -3.570322   -3.033887 C.2        1 UNL1     -0.0787
     3 C         -2.986759   -4.23481   -4.319986 C.2        1 UNL1     -0.0649
     4 C         -2.698963   -5.872089   -4.640689 C.2        1 UNL1     -0.0542
     5 C         -2.314975   -6.811551   -5.629143 C.2        1 UNL1     0.0115
     6 C         -2.048231   -6.999441   -7.14798 C.3        1 UNL1     -0.0348
     7 C         -1.809504   -8.26325   -5.166476 C.2        1 UNL1     0.2441
     8 O         -2.512767   -9.262524   -5.224759 O.2        1 UNL1     -0.2702
     9 N         -0.426061   -8.359484   -4.936313 N.am        1 UNL1     -0.2772
     10 C         -0.131066   -8.021923   -3.635408 C.2        1 UNL1     0.1049
     11 C         -0.017383   -6.73106   -3.380516 C.2        1 UNL1     0.0801
     12 C         -0.805292   -8.469221   -1.268411 C.ar        1 UNL1     0.0753
     13 C         -0.870138   -7.049222   -1.10106 C.ar        1 UNL1     0.0305
     14 C         -0.350409   -6.134721   -2.115269 C.2        1 UNL1     0.0924
     15 N         0.064837   -5.687947   -4.224128 N.pl3        1 UNL1     -0.3170
     16 C         0.349868   -4.513159   -3.443817 C.3        1 UNL1     0.1275
     17 N         -0.237901   -4.809806   -2.085785 N.2        1 UNL1     -0.2557
     18 C         1.861825   -4.456486   -3.24767 C.3        1 UNL1     0.0016
     19 C         2.53059   -4.480858   -4.612862 C.3        1 UNL1     0.0026
     20 N         2.059274   -3.339545   -5.385064 N.3        1 UNL1     -0.3018
     21 C         0.608743   -3.27353   -5.574725 C.3        1 UNL1     0.0026
     22 C         -0.042507   -3.245303   -4.1909 C.3        1 UNL1     0.0016
     23 C         2.849498   -3.099439   -6.576088 C.3        1 UNL1     0.0012
     24 C         4.243859   -2.573719   -6.200413 C.3        1 UNL1     -0.0339
     25 C         5.168478   -3.712113   -5.73868 C.3        1 UNL1     -0.0615
     26 C         4.842219   -1.805478   -7.365982 C.3        1 UNL1     -0.0615
     27 C         -1.19132   -9.334648   -0.24756 C.ar        1 UNL1     0.1347
     28 C         -1.619539   -8.899429   0.993917 C.ar        1 UNL1     0.0342
     29 C         -1.72172   -7.497612   1.118939 C.ar        1 UNL1     0.1435
     30 C         -1.372925   -6.618974   0.09251 C.ar        1 UNL1     0.0774
     31 O         -2.018632   -6.915289   2.301205 O.3        1 UNL1     -0.4436
     32 C         -1.573324   -5.557969   2.158886 C.3        1 UNL1     0.3143
     33 C         -1.554801   -5.301645   0.665511 C.2        1 UNL1     0.2504
     34 C         -1.808321   -9.759071   2.212718 C.3        1 UNL1     -0.0327
     35 O         -2.590682   -4.715438   2.714203 O.2        1 UNL1     -0.4528
     36 C         -0.792042   -1.645963   4.037571 C.3        1 UNL1     0.0854
     37 C         0.142146   -0.631406   3.272398 C.3        1 UNL1     0.0236
     38 C         -0.298615   0.906698   3.380599 C.3        1 UNL1     0.1131
     39 C         -1.789277   1.321287   3.051489 C.3        1 UNL1     0.0200
     40 C         -2.5701   0.682796   1.722926 C.3        1 UNL1     0.0661
     41 C         -1.957227   0.626621   0.142153 C.3        1 UNL1     0.0091
     42 C         -2.215652   -0.60654   -1.191238 C.3        1 UNL1     0.0661
     43 C         -0.228855   -8.989983   -2.532842 C.2        1 UNL1     0.2131
     44 O         0.238237   -10.108477   -2.649176 O.2        1 UNL1     -0.2851
     45 O         -1.140794   -10.702534   -0.507893 O.3        1 UNL1     -0.5056
     46 O         -1.683597   -4.249859   0.07984 O.2        1 UNL1     -0.2836
     47 C         -4.593816   -1.505917   -1.99949 C.3        1 UNL1     -0.0566
     48 O         -2.495039   0.410416   -2.233763 O.3        1 UNL1     -0.3909
     49 C         -0.475953   0.929496   0.182007 C.3        1 UNL1     -0.0577
     50 O         -3.185228   -0.547868   2.046666 O.3        1 UNL1     -0.3910
     51 O         -1.981541   -1.107475   4.56913 O.3        1 UNL1     -0.3753
     52 C         0.704749   -1.243681   1.948182 C.3        1 UNL1     -0.0564
     53 O         0.771705   1.869412   2.956423 O.3        1 UNL1     -0.4608
     54 C         0.563922   3.038556   2.272423 C.2        1 UNL1     0.3042
     55 O         0.754094   3.247142   1.074856 O.2        1 UNL1     -0.2512
     56 C         -0.013212   4.136602   3.119727 C.3        1 UNL1     0.0332
     57 C         -2.591866   1.373176   4.433999 C.3        1 UNL1     -0.0567
     58 C         -0.121658   -5.515878   2.690323 C.3        1 UNL1     0.0210
     59 C         -1.999708   -0.981239   5.990256 C.3        1 UNL1     0.0372
     60 C         -1.178122   -2.854695   3.25971 C.2        1 UNL1     -0.0208
     61 C         -2.362464   -3.452336   3.12222 C.2        1 UNL1     0.0882
     62 H         -2.98984   -2.618625   -1.120024 H        1 UNL1     0.0365
     63 H         -2.978915   -4.323643   -2.243868 H        1 UNL1     0.0576
     64 H         -2.997673   -3.671347   -5.255667 H        1 UNL1     0.0615
     65 H         -2.787552   -6.34907   -3.66083 H        1 UNL1     0.0622
     66 H         -0.178455   -2.009198   4.874002 H        1 UNL1     0.0645
     67 H         1.077367   -0.633492   3.858843 H        1 UNL1     0.0362
     68 H         -0.187614   1.053956   4.465733 H        1 UNL1     0.0741
     69 H         -1.8196   2.384876   2.855869 H        1 UNL1     0.0359
     70 H         -3.410733   1.397303   1.634187 H        1 UNL1     0.0600
     71 H         -2.362517   1.577422   -0.256186 H        1 UNL1     0.0348
     72 H         -3.042445   -0.750533   -0.480608 H        1 UNL1     0.0602
     73 H         -0.303163   -3.315521   2.873272 H        1 UNL1     0.0628
     74 H         -3.31215   -3.019076   3.437848 H        1 UNL1     0.1022
     75 H         -2.489207   -7.96033   -7.507518 H        1 UNL1     0.0279
     76 H         -2.502414   -6.26946   -7.81425 H        1 UNL1     0.0279
     77 H         -0.983179   -7.150495   -7.377213 H        1 UNL1     0.0279
     78 H         0.067602   -7.706815   -5.541621 H        1 UNL1     0.1553
     79 H         0.317549   -5.772596   -5.19155 H        1 UNL1     0.1484
     80 H         2.116497   -3.545227   -2.693129 H        1 UNL1     0.0317
     81 H         2.209638   -5.299816   -2.641476 H        1 UNL1     0.0317
     82 H         2.337936   -5.424732   -5.143802 H        1 UNL1     0.0428
     83 H         3.608023   -4.441507   -4.449649 H        1 UNL1     0.0428
     84 H         0.274342   -2.366741   -6.088262 H        1 UNL1     0.0428
     85 H         0.24203   -4.090998   -6.210795 H        1 UNL1     0.0428
     86 H         -1.086662   -3.063403   -4.365943 H        1 UNL1     0.0317
     87 H         0.282089   -2.352779   -3.642143 H        1 UNL1     0.0317
     88 H         2.966893   -4.05365   -7.106175 H        1 UNL1     0.0429
     89 H         2.338383   -2.411394   -7.261749 H        1 UNL1     0.0429
     90 H         4.146455   -1.849615   -5.382856 H        1 UNL1     0.0308
     91 H         4.624634   -4.447442   -5.138158 H        1 UNL1     0.0233
     92 H         5.621229   -4.214211   -6.596889 H        1 UNL1     0.0233
     93 H         6.000307   -3.350479   -5.122145 H        1 UNL1     0.0233
     94 H         5.144055   -2.497688   -8.159441 H        1 UNL1     0.0233
     95 H         4.099266   -1.119201   -7.781923 H        1 UNL1     0.0233
     96 H         5.719621   -1.230633   -7.056649 H        1 UNL1     0.0233
     97 H         -1.193571   -9.427661   3.044271 H        1 UNL1     0.0280
     98 H         -2.843619   -9.738395   2.577394 H        1 UNL1     0.0280
     99 H         -1.536295   -10.800608   1.975447 H        1 UNL1     0.0280
     100 H         -1.549677   -10.962936   -1.314508 H        1 UNL1     0.2922
     101 H         -5.042959   -1.728672   -1.031861 H        1 UNL1     0.0236
     102 H         -5.195339   -1.882676   -2.826053 H        1 UNL1     0.0236
     103 H         -4.65045   -0.408143   -2.088255 H        1 UNL1     0.0236
     104 H         -2.327728   1.289357   -1.840775 H        1 UNL1     0.2098
     105 H         -0.140126   1.629829   -0.578627 H        1 UNL1     0.0234
     106 H         -0.097672   1.224603   1.160651 H        1 UNL1     0.0234
     107 H         0.0   0.0   0.0 H        1 UNL1     0.0234
     108 H         -3.653405   -0.857291   1.247394 H        1 UNL1     0.2098
     109 H         1.311862   -2.141483   2.13005 H        1 UNL1     0.0234
     110 H         -0.075385   -1.471468   1.213847 H        1 UNL1     0.0234
     111 H         1.365145   -0.539228   1.425143 H        1 UNL1     0.0234
     112 H         -0.173374   5.031493   2.51074 H        1 UNL1     0.0342
     113 H         -0.933731   3.831032   3.614819 H        1 UNL1     0.0342
     114 H         0.717548   4.38724   3.900966 H        1 UNL1     0.0342
     115 H         -3.357279   2.16142   4.432551 H        1 UNL1     0.0234
     116 H         -3.086495   0.435659   4.695636 H        1 UNL1     0.0234
     117 H         -1.97025   1.681336   5.292237 H        1 UNL1     0.0234
     118 H         -0.043554   -4.956736   3.639147 H        1 UNL1     0.0309
     119 H         0.316088   -6.51028   2.823535 H        1 UNL1     0.0309
     120 H         0.555384   -4.973682   2.021186 H        1 UNL1     0.0309
     121 H         -1.427187   -0.091095   6.249522 H        1 UNL1     0.0524
     122 H         -3.02038   -0.84619   6.385261 H        1 UNL1     0.0524
     123 H         -1.556549   -1.859395   6.451285 H        1 UNL1     0.0524
@<TRIPOS>BOND
     1     1     2    1
     2     1    42    1
     3     2     3    2
     4     3     4    1
     5     4     5    2
     6     5     7    1
     7     6    75    1
     8     6    76    1
     9     6    77    1
    10     7     9   am
    11     9    10    1
    12    10    11    2
    13    10    43    1
    14    11    14    1
    15    11    15    1
    16    12    13   ar
    17    12    27   ar
    18    12    43    1
    19    13    14    1
    20    13    30   ar
    21    14    17    2
    22    15    16    1
    23    16    17    1
    24    16    18    1
    25    16    22    1
    26    18    19    1
    27    19    20    1
    28    20    21    1
    29    21    22    1
    30    23    24    1
    31    23    88    1
    32    23    89    1
    33    24    25    1
    34    24    26    1
    35    24    90    1
    36    25    91    1
    37    25    92    1
    38    25    93    1
    39    26    94    1
    40    26    95    1
    41    26    96    1
    42    27    28   ar
    43    28    29   ar
    44    29    30   ar
    45    29    31    1
    46    30    33    1
    47    31    32    1
    48    32    33    1
    49    32    35    1
    50    34    97    1
    51    34    98    1
    52    34    99    1
    53    35    61    1
    54    36    37    1
    55    36    60    1
    56    37    38    1
    57    38    39    1
    58    39    40    1
    59    40    41    1
    60    41    42    1
    61    45   100    1
    62    47   101    1
    63    47   102    1
    64    47   103    1
    65    48   104    1
    66    49   105    1
    67    49   106    1
    68    49   107    1
    69    50   108    1
    70    51    59    1
    71    52   109    1
    72    52   110    1
    73    52   111    1
    74    53    54    1
    75    54    55    2
    76    54    56    1
    77    56   112    1
    78    56   113    1
    79    56   114    1
    80    57   115    1
    81    57   116    1
    82    57   117    1
    83    58   118    1
    84    58   119    1
    85    58   120    1
    86    59   121    1
    87    59   122    1
    88    59   123    1
    89    60    61    2
    90     1    47    1
    91     1    62    1
    92     2    63    1
    93     3    64    1
    94     4    65    1
    95     5     6    1
    96     7     8    2
    97     9    78    1
    98    15    79    1
    99    18    80    1
   100    18    81    1
   101    19    82    1
   102    19    83    1
   103    20    23    1
   104    21    84    1
   105    21    85    1
   106    22    86    1
   107    22    87    1
   108    27    45    1
   109    28    34    1
   110    32    58    1
   111    33    46    2
   112    36    51    1
   113    36    66    1
   114    37    52    1
   115    37    67    1
   116    38    53    1
   117    38    68    1
   118    42    48    1
   119    42    72    1
   120    43    44    2
   121    60    73    1
   122    61    74    1
   123    39    69    1
   124    39    57    1
   125    40    70    1
   126    40    50    1
   127    41    71    1
   128    41    49    1
