@<TRIPOS>MOLECULE
*****
 123 128 0 0 0
SMALL
GASTEIGER

@<TRIPOS>ATOM
     1 C         2.6203   3.859738   -1.01736 C.3        1 UNL1     0.0009
     2 C         2.889086   5.472158   -0.142778 C.2        1 UNL1     -0.0787
     3 C         2.753066   6.912711   -0.094277 C.2        1 UNL1     -0.0649
     4 C         3.142347   7.952222   1.184095 C.2        1 UNL1     -0.0542
     5 C         2.923205   9.234096   1.746105 C.2        1 UNL1     0.0115
     6 C         2.293933   10.630088   1.48429 C.3        1 UNL1     -0.0348
     7 C         3.301161   9.481948   3.286464 C.2        1 UNL1     0.2441
     8 O         4.315969   10.068578   3.636545 O.2        1 UNL1     -0.2702
     9 N         2.265205   9.212765   4.197774 N.am        1 UNL1     -0.2772
     10 C         2.288684   7.889525   4.574346 C.2        1 UNL1     0.1049
     11 C         1.698466   7.040117   3.753144 C.2        1 UNL1     0.0801
     12 C         3.816199   6.089107   5.4005 C.ar        1 UNL1     0.0753
     13 C         3.288724   5.269213   4.352572 C.ar        1 UNL1     0.0305
     14 C         2.118189   5.676055   3.578378 C.2        1 UNL1     0.0924
     15 N         0.890278   7.272325   2.704603 N.pl3        1 UNL1     -0.3170
     16 C         0.379006   6.004856   2.254737 C.3        1 UNL1     0.1275
     17 N         1.440842   5.007571   2.649262 N.2        1 UNL1     -0.2557
     18 C         -0.84354   5.68173   3.10836 C.3        1 UNL1     0.0016
     19 C         -1.831521   6.832084   2.998053 C.3        1 UNL1     0.0026
     20 N         -2.199076   7.000483   1.59892 N.3        1 UNL1     -0.3018
     21 C         -1.080567   7.254221   0.688468 C.3        1 UNL1     0.0026
     22 C         -0.10289   6.084288   0.812165 C.3        1 UNL1     0.0016
     23 C         -3.350411   7.862089   1.418072 C.3        1 UNL1     0.0012
     24 C         -2.921134   9.337582   1.398187 C.3        1 UNL1     -0.0339
     25 C         -3.287164   10.011846   0.065728 C.3        1 UNL1     -0.0615
     26 C         -3.527006   10.072217   2.581408 C.3        1 UNL1     -0.0615
     27 C         4.855442   5.641984   6.21301 C.ar        1 UNL1     0.1347
     28 C         5.418969   4.383578   6.099427 C.ar        1 UNL1     0.0342
     29 C         4.917078   3.612464   5.029543 C.ar        1 UNL1     0.1435
     30 C         3.901161   4.061216   4.184704 C.ar        1 UNL1     0.0774
     31 O         5.28614   2.324691   4.855068 O.3        1 UNL1     -0.4436
     32 C         4.261281   1.763538   4.021016 C.3        1 UNL1     0.3143
     33 C         3.648349   2.945328   3.297208 C.2        1 UNL1     0.2504
     34 C         6.35516   3.74435   7.086866 C.3        1 UNL1     -0.0327
     35 O         4.911864   0.958918   3.029764 O.2        1 UNL1     -0.4528
     36 C         2.466058   -1.813913   2.17097 C.3        1 UNL1     0.0854
     37 C         0.985686   -1.706804   1.637539 C.3        1 UNL1     0.0236
     38 C         0.699639   -2.500484   0.273723 C.3        1 UNL1     0.1131
     39 C         1.650496   -2.288154   -0.972494 C.3        1 UNL1     0.0200
     40 C         2.157839   -0.756844   -1.396914 C.3        1 UNL1     0.0661
     41 C         1.161003   0.601829   -1.591689 C.3        1 UNL1     0.0091
     42 C         1.497433   2.378649   -1.28326 C.3        1 UNL1     0.0661
     43 C         3.159966   7.396278   5.651346 C.2        1 UNL1     0.2131
     44 O         3.2336   7.994287   6.709505 O.2        1 UNL1     -0.2851
     45 O         5.34147   6.51945   7.180103 O.3        1 UNL1     -0.5056
     46 O         3.095594   2.965213   2.220212 O.2        1 UNL1     -0.2836
     47 C         3.621524   3.71125   -2.194426 C.3        1 UNL1     -0.0566
     48 O         0.93814   2.827077   -2.58142 O.3        1 UNL1     -0.3909
     49 C         -0.196692   0.30019   -0.997406 C.3        1 UNL1     -0.0577
     50 O         3.326235   -0.400902   -0.685663 O.3        1 UNL1     -0.3910
     51 O         3.388582   -2.43822   1.306897 O.3        1 UNL1     -0.3753
     52 C         0.362626   -0.302465   1.928358 C.3        1 UNL1     -0.0564
     53 O         -0.760794   -2.677982   -0.022852 O.3        1 UNL1     -0.4608
     54 C         -1.296264   -2.929799   -1.25889 C.2        1 UNL1     0.3042
     55 O         -2.225221   -3.689772   -1.529663 O.2        1 UNL1     -0.2512
     56 C         -0.676219   -2.117239   -2.359801 C.3        1 UNL1     0.0332
     57 C         2.743334   -3.455786   -0.949781 C.3        1 UNL1     -0.0567
     58 C         3.203916   1.159158   4.97403 C.3        1 UNL1     0.0210
     59 C         4.73689   -2.445396   1.773674 C.3        1 UNL1     0.0372
     60 C         3.077565   -0.524036   2.592203 C.2        1 UNL1     -0.0208
     61 C         4.28808   -0.020547   2.347467 C.2        1 UNL1     0.0882
     62 H         3.066602   3.342104   -0.159699 H        1 UNL1     0.0365
     63 H         3.45742   5.139098   0.728163 H        1 UNL1     0.0576
     64 H         2.207472   7.462414   -0.864512 H        1 UNL1     0.0615
     65 H         3.74647   7.330735   1.850632 H        1 UNL1     0.0622
     66 H         2.387466   -2.422188   3.083039 H        1 UNL1     0.0645
     67 H         0.39646   -2.295634   2.361868 H        1 UNL1     0.0362
     68 H         0.891957   -3.528911   0.615591 H        1 UNL1     0.0741
     69 H         1.136444   -2.623097   -1.863545 H        1 UNL1     0.0359
     70 H         2.510188   -0.951624   -2.427919 H        1 UNL1     0.0600
     71 H         0.944534   0.528953   -2.675565 H        1 UNL1     0.0348
     72 H         2.480941   1.894178   -1.368789 H        1 UNL1     0.0602
     73 H         2.429434   -0.037855   3.278354 H        1 UNL1     0.0628
     74 H         4.987963   -0.425476   1.615733 H        1 UNL1     0.1022
     75 H         2.9204   11.21437   0.76792 H        1 UNL1     0.0279
     76 H         1.318027   10.639988   1.004105 H        1 UNL1     0.0279
     77 H         2.316132   11.279734   2.371515 H        1 UNL1     0.0279
     78 H         1.365789   9.389376   3.755128 H        1 UNL1     0.1553
     79 H         0.404743   8.137934   2.556584 H        1 UNL1     0.1484
     80 H         -1.284518   4.740175   2.75939 H        1 UNL1     0.0317
     81 H         -0.560065   5.526201   4.154832 H        1 UNL1     0.0317
     82 H         -1.420021   7.763487   3.414068 H        1 UNL1     0.0428
     83 H         -2.694679   6.581822   3.615612 H        1 UNL1     0.0428
     84 H         -1.373677   7.297283   -0.365118 H        1 UNL1     0.0428
     85 H         -0.614514   8.231453   0.875898 H        1 UNL1     0.0428
     86 H         0.629657   6.236375   0.0413 H        1 UNL1     0.0317
     87 H         -0.59565   5.15099   0.513437 H        1 UNL1     0.0317
     88 H         -3.810493   7.618905   0.451386 H        1 UNL1     0.0429
     89 H         -4.109292   7.680845   2.190098 H        1 UNL1     0.0429
     90 H         -1.834634   9.397403   1.532921 H        1 UNL1     0.0308
     91 H         -4.314184   9.777306   -0.229776 H        1 UNL1     0.0233
     92 H         -3.173302   11.096058   0.137343 H        1 UNL1     0.0233
     93 H         -2.637883   9.689901   -0.757449 H        1 UNL1     0.0233
     94 H         -3.562647   11.148297   2.379868 H        1 UNL1     0.0233
     95 H         -4.550689   9.726955   2.7512 H        1 UNL1     0.0233
     96 H         -2.944209   9.9104   3.492523 H        1 UNL1     0.0233
     97 H         6.156013   4.066539   8.104591 H        1 UNL1     0.0280
     98 H         6.264341   2.6503   7.09478 H        1 UNL1     0.0280
     99 H         7.394697   4.012436   6.836694 H        1 UNL1     0.0280
     100 H         5.21548   7.430525   6.980874 H        1 UNL1     0.2922
     101 H         3.261938   2.952837   -2.889525 H        1 UNL1     0.0236
     102 H         4.64196   3.515044   -1.867016 H        1 UNL1     0.0236
     103 H         3.691898   4.632238   -2.796939 H        1 UNL1     0.0236
     104 H         1.663529   2.812078   -3.236062 H        1 UNL1     0.2098
     105 H         -0.870655   1.152424   -0.961596 H        1 UNL1     0.0234
     106 H         -0.701838   -0.562969   -1.430661 H        1 UNL1     0.0234
     107 H         0.0   -0.0   0.0 H        1 UNL1     0.0234
     108 H         3.30103   -0.873378   0.168678 H        1 UNL1     0.2098
     109 H         0.935312   0.511345   1.462037 H        1 UNL1     0.0234
     110 H         -0.688794   -0.228048   1.630497 H        1 UNL1     0.0234
     111 H         0.351106   -0.079613   3.003603 H        1 UNL1     0.0234
     112 H         0.266975   -2.574488   -2.673893 H        1 UNL1     0.0342
     113 H         -1.350381   -1.991791   -3.20574 H        1 UNL1     0.0342
     114 H         -0.450334   -1.117848   -1.963118 H        1 UNL1     0.0342
     115 H         2.490706   -4.23747   -0.220167 H        1 UNL1     0.0234
     116 H         2.892077   -3.943463   -1.915232 H        1 UNL1     0.0234
     117 H         3.729504   -3.128155   -0.578207 H        1 UNL1     0.0234
     118 H         3.565169   0.237624   5.463189 H        1 UNL1     0.0309
     119 H         2.864928   1.86257   5.741168 H        1 UNL1     0.0309
     120 H         2.302644   0.82837   4.4464 H        1 UNL1     0.0309
     121 H         5.321736   -3.052016   1.082787 H        1 UNL1     0.0524
     122 H         5.180563   -1.435928   1.786481 H        1 UNL1     0.0524
     123 H         4.78589   -2.86479   2.774574 H        1 UNL1     0.0524
@<TRIPOS>BOND
     1     1     2    1
     2     1    42    1
     3     2     3    2
     4     3     4    1
     5     4     5    2
     6     5     7    1
     7     6    75    1
     8     6    76    1
     9     6    77    1
    10     7     9   am
    11     9    10    1
    12    10    11    2
    13    10    43    1
    14    11    14    1
    15    11    15    1
    16    12    13   ar
    17    12    27   ar
    18    12    43    1
    19    13    14    1
    20    13    30   ar
    21    14    17    2
    22    15    16    1
    23    16    17    1
    24    16    18    1
    25    16    22    1
    26    18    19    1
    27    19    20    1
    28    20    21    1
    29    21    22    1
    30    23    24    1
    31    23    88    1
    32    23    89    1
    33    24    25    1
    34    24    26    1
    35    24    90    1
    36    25    91    1
    37    25    92    1
    38    25    93    1
    39    26    94    1
    40    26    95    1
    41    26    96    1
    42    27    28   ar
    43    28    29   ar
    44    29    30   ar
    45    29    31    1
    46    30    33    1
    47    31    32    1
    48    32    33    1
    49    32    35    1
    50    34    97    1
    51    34    98    1
    52    34    99    1
    53    35    61    1
    54    36    37    1
    55    36    60    1
    56    37    38    1
    57    38    39    1
    58    39    40    1
    59    40    41    1
    60    41    42    1
    61    45   100    1
    62    47   101    1
    63    47   102    1
    64    47   103    1
    65    48   104    1
    66    49   105    1
    67    49   106    1
    68    49   107    1
    69    50   108    1
    70    51    59    1
    71    52   109    1
    72    52   110    1
    73    52   111    1
    74    53    54    1
    75    54    55    2
    76    54    56    1
    77    56   112    1
    78    56   113    1
    79    56   114    1
    80    57   115    1
    81    57   116    1
    82    57   117    1
    83    58   118    1
    84    58   119    1
    85    58   120    1
    86    59   121    1
    87    59   122    1
    88    59   123    1
    89    60    61    2
    90     1    47    1
    91     1    62    1
    92     2    63    1
    93     3    64    1
    94     4    65    1
    95     5     6    1
    96     7     8    2
    97     9    78    1
    98    15    79    1
    99    18    80    1
   100    18    81    1
   101    19    82    1
   102    19    83    1
   103    20    23    1
   104    21    84    1
   105    21    85    1
   106    22    86    1
   107    22    87    1
   108    27    45    1
   109    28    34    1
   110    32    58    1
   111    33    46    2
   112    36    51    1
   113    36    66    1
   114    37    52    1
   115    37    67    1
   116    38    53    1
   117    38    68    1
   118    42    48    1
   119    42    72    1
   120    43    44    2
   121    60    73    1
   122    61    74    1
   123    39    69    1
   124    39    57    1
   125    40    70    1
   126    40    50    1
   127    41    71    1
   128    41    49    1
