@<TRIPOS>MOLECULE
*****
 123 128 0 0 0
SMALL
GASTEIGER

@<TRIPOS>ATOM
     1 C         -1.523147   -2.469358   2.93701 C.3        1 UNL1     0.0009
     2 C         -2.016495   -4.250174   2.787551 C.2        1 UNL1     -0.0787
     3 C         -3.031187   -5.257659   2.56079 C.2        1 UNL1     -0.0649
     4 C         -2.821479   -6.931273   2.414511 C.2        1 UNL1     -0.0542
     5 C         -3.394978   -8.13602   1.938317 C.2        1 UNL1     0.0115
     6 C         -4.691661   -8.768906   1.362652 C.3        1 UNL1     -0.0348
     7 C         -2.451032   -9.418379   1.734574 C.2        1 UNL1     0.2441
     8 O         -2.415467   -10.350875   2.525594 O.2        1 UNL1     -0.2702
     9 N         -1.864346   -9.521512   0.461266 N.am        1 UNL1     -0.2772
     10 C         -0.669521   -8.839967   0.426436 C.2        1 UNL1     0.1049
     11 C         -0.747568   -7.538965   0.21307 C.2        1 UNL1     0.0801
     12 C         1.483554   -8.546564   1.665596 C.ar        1 UNL1     0.0753
     13 C         1.244881   -7.137387   1.589013 C.ar        1 UNL1     0.0305
     14 C         0.187701   -6.585152   0.744941 C.2        1 UNL1     0.0924
     15 N         -1.789912   -6.790033   -0.185862 N.pl3        1 UNL1     -0.3170
     16 C         -1.305075   -5.457948   -0.432311 C.3        1 UNL1     0.1275
     17 N         -0.109499   -5.316591   0.47782 N.2        1 UNL1     -0.2557
     18 C         -0.75855   -5.431956   -1.856507 C.3        1 UNL1     0.0016
     19 C         -1.854992   -5.886752   -2.806542 C.3        1 UNL1     0.0026
     20 N         -2.995801   -4.99231   -2.666702 N.3        1 UNL1     -0.3018
     21 C         -3.553563   -4.902609   -1.315693 C.3        1 UNL1     0.0026
     22 C         -2.436416   -4.439733   -0.378878 C.3        1 UNL1     0.0016
     23 C         -3.970127   -5.150862   -3.727925 C.3        1 UNL1     0.0012
     24 C         -3.410911   -4.618147   -5.056552 C.3        1 UNL1     -0.0339
     25 C         -1.92121   -4.962715   -5.218171 C.3        1 UNL1     -0.0615
     26 C         -4.23583   -5.145602   -6.21762 C.3        1 UNL1     -0.0615
     27 C         2.567366   -9.057475   2.375834 C.ar        1 UNL1     0.1347
     28 C         3.499555   -8.259183   3.01443 C.ar        1 UNL1     0.0342
     29 C         3.21697   -6.877507   2.966681 C.ar        1 UNL1     0.1435
     30 C         2.115112   -6.353492   2.289527 C.ar        1 UNL1     0.0774
     31 O         4.087794   -5.963065   3.446751 O.3        1 UNL1     -0.4436
     32 C         3.705502   -4.731776   2.81536 C.3        1 UNL1     0.3143
     33 C         2.251985   -4.918812   2.429981 C.2        1 UNL1     0.2504
     34 C         4.815513   -8.718496   3.5778 C.3        1 UNL1     -0.0327
     35 O         3.742899   -3.709164   3.818415 O.2        1 UNL1     -0.4528
     36 C         4.608053   -0.494276   1.995205 C.3        1 UNL1     0.0854
     37 C         3.859915   0.202224   0.794081 C.3        1 UNL1     0.0236
     38 C         3.440492   1.728295   1.052795 C.3        1 UNL1     0.1131
     39 C         2.650052   2.113171   2.367841 C.3        1 UNL1     0.0200
     40 C         1.387827   1.163255   2.903457 C.3        1 UNL1     0.0661
     41 C         0.0852   0.618979   1.962958 C.3        1 UNL1     0.0091
     42 C         -0.892177   -0.930013   2.06669 C.3        1 UNL1     0.0661
     43 C         0.589941   -9.441555   0.889253 C.2        1 UNL1     0.2131
     44 O         0.896646   -10.570385   0.551004 O.2        1 UNL1     -0.2851
     45 O         2.70203   -10.442874   2.438874 O.3        1 UNL1     -0.5056
     46 O         1.394495   -4.075314   2.291861 O.2        1 UNL1     -0.2836
     47 C         -2.001134   -1.889547   4.295439 C.3        1 UNL1     -0.0566
     48 O         -2.203343   -0.243211   1.975791 O.3        1 UNL1     -0.3909
     49 C         0.413001   0.836905   0.502633 C.3        1 UNL1     -0.0577
     50 O         1.862663   0.114907   3.723958 O.3        1 UNL1     -0.3910
     51 O         4.661153   0.240526   3.197153 O.3        1 UNL1     -0.3753
     52 C         2.931563   -0.796714   0.029073 C.3        1 UNL1     -0.0564
     53 O         3.05766   2.466023   -0.196814 O.3        1 UNL1     -0.4608
     54 C         2.057598   3.397744   -0.29531 C.2        1 UNL1     0.3042
     55 O         0.93514   3.240825   -0.774166 O.2        1 UNL1     -0.2512
     56 C         2.409071   4.724161   0.316081 C.3        1 UNL1     0.0332
     57 C         3.721731   2.60677   3.447673 C.3        1 UNL1     -0.0567
     58 C         4.552852   -4.619575   1.526586 C.3        1 UNL1     0.0210
     59 C         5.945635   0.772343   3.518308 C.3        1 UNL1     0.0372
     60 C         4.109202   -1.852433   2.344089 C.2        1 UNL1     -0.0208
     61 C         3.843475   -2.396927   3.532222 C.2        1 UNL1     0.0882
     62 H         -0.484142   -2.789208   3.081494 H        1 UNL1     0.0365
     63 H         -1.073299   -4.74383   3.030767 H        1 UNL1     0.0576
     64 H         -4.054829   -4.988527   2.290917 H        1 UNL1     0.0615
     65 H         -1.804697   -7.099416   2.779703 H        1 UNL1     0.0622
     66 H         5.637095   -0.63447   1.635394 H        1 UNL1     0.0645
     67 H         4.640749   0.317036   0.02228 H        1 UNL1     0.0362
     68 H         4.439048   2.175994   1.171003 H        1 UNL1     0.0741
     69 H         2.177132   3.074998   2.220725 H        1 UNL1     0.0359
     70 H         0.904197   1.867715   3.606947 H        1 UNL1     0.0600
     71 H         -0.640363   1.435524   2.146722 H        1 UNL1     0.0348
     72 H         -0.399724   -0.816189   3.043342 H        1 UNL1     0.0602
     73 H         4.091627   -2.453485   1.46906 H        1 UNL1     0.0628
     74 H         3.783754   -1.838469   4.466992 H        1 UNL1     0.1022
     75 H         -5.577951   -8.470348   1.972887 H        1 UNL1     0.0279
     76 H         -4.980697   -8.456941   0.36155 H        1 UNL1     0.0279
     77 H         -4.714087   -9.863403   1.468836 H        1 UNL1     0.0279
     78 H         -2.477762   -9.100066   -0.233126 H        1 UNL1     0.1553
     79 H         -2.604399   -7.164314   -0.636925 H        1 UNL1     0.1484
     80 H         -0.421268   -4.415209   -2.091523 H        1 UNL1     0.0317
     81 H         0.117434   -6.08257   -1.951403 H        1 UNL1     0.0317
     82 H         -2.146073   -6.93134   -2.622098 H        1 UNL1     0.0428
     83 H         -1.443445   -5.862455   -3.816042 H        1 UNL1     0.0428
     84 H         -4.356848   -4.165351   -1.220843 H        1 UNL1     0.0428
     85 H         -4.019792   -5.846957   -1.002397 H        1 UNL1     0.0428
     86 H         -2.909553   -4.257836   0.568245 H        1 UNL1     0.0317
     87 H         -2.081997   -3.446482   -0.680437 H        1 UNL1     0.0317
     88 H         -4.179929   -6.222471   -3.841645 H        1 UNL1     0.0429
     89 H         -4.919656   -4.662448   -3.473723 H        1 UNL1     0.0429
     90 H         -3.521759   -3.527593   -5.081411 H        1 UNL1     0.0308
     91 H         -1.7334   -6.021138   -5.014278 H        1 UNL1     0.0233
     92 H         -1.577123   -4.725375   -6.227568 H        1 UNL1     0.0233
     93 H         -1.283352   -4.389054   -4.534881 H        1 UNL1     0.0233
     94 H         -3.65167   -5.108712   -7.143488 H        1 UNL1     0.0233
     95 H         -4.5137   -6.187536   -6.035621 H        1 UNL1     0.0233
     96 H         -5.14653   -4.557094   -6.359929 H        1 UNL1     0.0233
     97 H         5.655311   -8.196217   3.129252 H        1 UNL1     0.0280
     98 H         4.889855   -8.535432   4.657715 H        1 UNL1     0.0280
     99 H         4.940261   -9.797734   3.391309 H        1 UNL1     0.0280
     100 H         1.918145   -10.90163   2.685223 H        1 UNL1     0.2922
     101 H         -1.153833   -1.79801   4.974672 H        1 UNL1     0.0236
     102 H         -2.820894   -2.454473   4.737973 H        1 UNL1     0.0236
     103 H         -2.390303   -0.862732   4.193503 H        1 UNL1     0.0236
     104 H         -2.437281   0.065775   2.872881 H        1 UNL1     0.2098
     105 H         -0.026477   1.733439   0.072638 H        1 UNL1     0.0234
     106 H         1.474526   0.783446   0.261316 H        1 UNL1     0.0234
     107 H         0.0   0.0   0.0 H        1 UNL1     0.0234
     108 H         1.135969   -0.530485   3.819622 H        1 UNL1     0.2098
     109 H         3.492139   -1.636395   -0.404981 H        1 UNL1     0.0234
     110 H         2.113188   -1.182618   0.646392 H        1 UNL1     0.0234
     111 H         2.422726   -0.311378   -0.81442 H        1 UNL1     0.0234
     112 H         1.563802   5.412727   0.222575 H        1 UNL1     0.0342
     113 H         2.720453   4.626601   1.355006 H        1 UNL1     0.0342
     114 H         3.252637   5.148212   -0.245829 H        1 UNL1     0.0342
     115 H         3.311993   3.388691   4.101815 H        1 UNL1     0.0234
     116 H         4.105447   1.810389   4.088444 H        1 UNL1     0.0234
     117 H         4.584681   3.131609   3.002923 H        1 UNL1     0.0234
     118 H         5.306604   -3.81569   1.59466 H        1 UNL1     0.0309
     119 H         5.051407   -5.556131   1.257313 H        1 UNL1     0.0309
     120 H         3.955425   -4.332423   0.654387 H        1 UNL1     0.0309
     121 H         5.991253   0.893331   4.600268 H        1 UNL1     0.0524
     122 H         6.764388   0.094244   3.225284 H        1 UNL1     0.0524
     123 H         6.088979   1.73085   3.027582 H        1 UNL1     0.0524
@<TRIPOS>BOND
     1     1     2    1
     2     1    42    1
     3     2     3    2
     4     3     4    1
     5     4     5    2
     6     5     7    1
     7     6    75    1
     8     6    76    1
     9     6    77    1
    10     7     9   am
    11     9    10    1
    12    10    11    2
    13    10    43    1
    14    11    14    1
    15    11    15    1
    16    12    13   ar
    17    12    27   ar
    18    12    43    1
    19    13    14    1
    20    13    30   ar
    21    14    17    2
    22    15    16    1
    23    16    17    1
    24    16    18    1
    25    16    22    1
    26    18    19    1
    27    19    20    1
    28    20    21    1
    29    21    22    1
    30    23    24    1
    31    23    88    1
    32    23    89    1
    33    24    25    1
    34    24    26    1
    35    24    90    1
    36    25    91    1
    37    25    92    1
    38    25    93    1
    39    26    94    1
    40    26    95    1
    41    26    96    1
    42    27    28   ar
    43    28    29   ar
    44    29    30   ar
    45    29    31    1
    46    30    33    1
    47    31    32    1
    48    32    33    1
    49    32    35    1
    50    34    97    1
    51    34    98    1
    52    34    99    1
    53    35    61    1
    54    36    37    1
    55    36    60    1
    56    37    38    1
    57    38    39    1
    58    39    40    1
    59    40    41    1
    60    41    42    1
    61    45   100    1
    62    47   101    1
    63    47   102    1
    64    47   103    1
    65    48   104    1
    66    49   105    1
    67    49   106    1
    68    49   107    1
    69    50   108    1
    70    51    59    1
    71    52   109    1
    72    52   110    1
    73    52   111    1
    74    53    54    1
    75    54    55    2
    76    54    56    1
    77    56   112    1
    78    56   113    1
    79    56   114    1
    80    57   115    1
    81    57   116    1
    82    57   117    1
    83    58   118    1
    84    58   119    1
    85    58   120    1
    86    59   121    1
    87    59   122    1
    88    59   123    1
    89    60    61    2
    90     1    47    1
    91     1    62    1
    92     2    63    1
    93     3    64    1
    94     4    65    1
    95     5     6    1
    96     7     8    2
    97     9    78    1
    98    15    79    1
    99    18    80    1
   100    18    81    1
   101    19    82    1
   102    19    83    1
   103    20    23    1
   104    21    84    1
   105    21    85    1
   106    22    86    1
   107    22    87    1
   108    27    45    1
   109    28    34    1
   110    32    58    1
   111    33    46    2
   112    36    51    1
   113    36    66    1
   114    37    52    1
   115    37    67    1
   116    38    53    1
   117    38    68    1
   118    42    48    1
   119    42    72    1
   120    43    44    2
   121    60    73    1
   122    61    74    1
   123    39    69    1
   124    39    57    1
   125    40    70    1
   126    40    50    1
   127    41    71    1
   128    41    49    1
