@<TRIPOS>MOLECULE
*****
 123 128 0 0 0
SMALL
GASTEIGER

@<TRIPOS>ATOM
     1 C         -3.267668   -0.140261   -2.68623 C.3        1 UNL1     0.0009
     2 C         -5.001599   -0.690688   -2.329087 C.2        1 UNL1     -0.0787
     3 C         -6.05245   -1.680731   -2.436654 C.2        1 UNL1     -0.0649
     4 C         -7.582922   -1.656537   -1.71317 C.2        1 UNL1     -0.0542
     5 C         -8.693883   -2.442868   -1.320069 C.2        1 UNL1     0.0115
     6 C         -9.337733   -3.85234   -1.430374 C.3        1 UNL1     -0.0348
     7 C         -9.729401   -1.844245   -0.249396 C.2        1 UNL1     0.2441
     8 O         -10.81912   -1.384878   -0.562479 O.2        1 UNL1     -0.2702
     9 N         -9.414253   -2.11985   1.092571 N.am        1 UNL1     -0.2772
     10 C         -8.581115   -1.149071   1.599316 C.2        1 UNL1     0.1049
     11 C         -7.294653   -1.290921   1.336414 C.2        1 UNL1     0.0801
     12 C         -8.308682   1.330382   1.787534 C.ar        1 UNL1     0.0753
     13 C         -6.977473   1.142622   1.296373 C.ar        1 UNL1     0.0305
     14 C         -6.385327   -0.188142   1.180272 C.2        1 UNL1     0.0924
     15 N         -6.627365   -2.341624   0.829189 N.pl3        1 UNL1     -0.3170
     16 C         -5.221106   -2.046264   0.903029 C.3        1 UNL1     0.1275
     17 N         -5.147736   -0.540015   0.843401 N.2        1 UNL1     -0.2557
     18 C         -4.749494   -2.438244   2.300038 C.3        1 UNL1     0.0016
     19 C         -5.097591   -3.898856   2.538848 C.3        1 UNL1     0.0026
     20 N         -4.444642   -4.708103   1.51914 N.3        1 UNL1     -0.3018
     21 C         -4.788483   -4.364006   0.137931 C.3        1 UNL1     0.0026
     22 C         -4.426255   -2.894102   -0.081314 C.3        1 UNL1     0.0016
     23 C         -4.463377   -6.124526   1.825797 C.3        1 UNL1     0.0012
     24 C         -3.530994   -6.432027   3.008109 C.3        1 UNL1     -0.0339
     25 C         -2.870875   -7.812676   2.859421 C.3        1 UNL1     -0.0615
     26 C         -2.495824   -5.330407   3.155201 C.3        1 UNL1     -0.0615
     27 C         -8.822954   2.605691   2.009412 C.ar        1 UNL1     0.1347
     28 C         -8.090172   3.763012   1.815273 C.ar        1 UNL1     0.0342
     29 C         -6.799037   3.555644   1.285051 C.ar        1 UNL1     0.1435
     30 C         -6.283402   2.285601   1.023648 C.ar        1 UNL1     0.0774
     31 O         -5.923287   4.57449   1.14356 O.3        1 UNL1     -0.4436
     32 C         -4.63961   3.938815   1.048876 C.3        1 UNL1     0.3143
     33 C         -4.929431   2.529926   0.57217 C.2        1 UNL1     0.2504
     34 C         -8.483611   5.141894   2.266924 C.3        1 UNL1     -0.0327
     35 O         -3.916294   4.593777   -0.000453 O.2        1 UNL1     -0.4528
     36 C         -0.249528   4.339455   0.947298 C.3        1 UNL1     0.0854
     37 C         0.617358   3.054543   1.2389 C.3        1 UNL1     0.0236
     38 C         1.94749   2.92131   0.353043 C.3        1 UNL1     0.1131
     39 C         1.861159   3.066563   -1.219763 C.3        1 UNL1     0.0200
     40 C         0.632655   2.325332   -2.070524 C.3        1 UNL1     0.0661
     41 C         0.166747   0.700269   -1.930134 C.3        1 UNL1     0.0091
     42 C         -1.481239   -0.085098   -2.111088 C.3        1 UNL1     0.0661
     43 C         -9.092687   0.120051   2.137812 C.2        1 UNL1     0.2131
     44 O         -10.039183   0.129605   2.903834 O.2        1 UNL1     -0.2851
     45 O         -10.143026   2.702191   2.444767 O.3        1 UNL1     -0.5056
     46 O         -4.212343   1.785131   -0.057845 O.2        1 UNL1     -0.2836
     47 C         -3.133719   0.290234   -4.171731 C.3        1 UNL1     -0.0566
     48 O         -0.991756   -1.174921   -2.989615 O.3        1 UNL1     -0.3909
     49 C         0.799321   0.116956   -0.686314 C.3        1 UNL1     -0.0577
     50 O         -0.511677   3.153322   -2.122103 O.3        1 UNL1     -0.3910
     51 O         0.149817   5.113487   -0.161228 O.3        1 UNL1     -0.3753
     52 C         -0.273895   1.819037   1.59124 C.3        1 UNL1     -0.0564
     53 O         2.919208   1.905052   0.877742 O.3        1 UNL1     -0.4608
     54 C         3.689677   1.071268   0.110207 C.2        1 UNL1     0.3042
     55 O         4.918053   1.009364   0.077052 O.2        1 UNL1     -0.2512
     56 C         2.889821   0.110117   -0.722339 C.3        1 UNL1     0.0332
     57 C         2.209232   4.584637   -1.583729 C.3        1 UNL1     -0.0567
     58 C         -4.077012   3.87276   2.487851 C.3        1 UNL1     0.0210
     59 C         -0.306593   6.465249   -0.144048 C.3        1 UNL1     0.0372
     60 C         -1.70916   4.091894   0.794491 C.2        1 UNL1     -0.0208
     61 C         -2.57442   4.554168   -0.109042 C.2        1 UNL1     0.0882
     62 H         -3.459912   0.77384   -2.111624 H        1 UNL1     0.0365
     63 H         -5.399228   0.197578   -1.833764 H        1 UNL1     0.0576
     64 H         -5.874062   -2.657741   -2.891338 H        1 UNL1     0.0615
     65 H         -7.690443   -0.625579   -1.365252 H        1 UNL1     0.0622
     66 H         -0.141451   4.95618   1.850635 H        1 UNL1     0.0645
     67 H         1.039381   3.237915   2.24231 H        1 UNL1     0.0362
     68 H         2.489319   3.814663   0.699256 H        1 UNL1     0.0741
     69 H         2.749324   2.631918   -1.658688 H        1 UNL1     0.0359
     70 H         1.053891   2.371644   -3.093009 H        1 UNL1     0.0600
     71 H         0.794129   0.250027   -2.724257 H        1 UNL1     0.0348
     72 H         -1.553228   0.890192   -2.614022 H        1 UNL1     0.0602
     73 H         -2.059978   3.543093   1.632937 H        1 UNL1     0.0628
     74 H         -2.290907   5.073932   -1.024849 H        1 UNL1     0.1022
     75 H         -9.338491   -4.201043   -2.491242 H        1 UNL1     0.0279
     76 H         -8.823247   -4.662163   -0.917967 H        1 UNL1     0.0279
     77 H         -10.413839   -3.84728   -1.203061 H        1 UNL1     0.0279
     78 H         -8.92136   -3.008403   1.152633 H        1 UNL1     0.1553
     79 H         -6.986483   -3.278593   0.821764 H        1 UNL1     0.1484
     80 H         -3.668775   -2.266839   2.37375 H        1 UNL1     0.0317
     81 H         -5.219519   -1.808243   3.062814 H        1 UNL1     0.0317
     82 H         -6.185156   -4.063524   2.53845 H        1 UNL1     0.0428
     83 H         -4.754192   -4.15694   3.541105 H        1 UNL1     0.0428
     84 H         -4.22515   -4.932111   -0.608878 H        1 UNL1     0.0428
     85 H         -5.838938   -4.591269   -0.090572 H        1 UNL1     0.0428
     86 H         -4.565527   -2.715078   -1.131334 H        1 UNL1     0.0317
     87 H         -3.348322   -2.74869   0.06015 H        1 UNL1     0.0317
     88 H         -5.4881   -6.399314   2.108159 H        1 UNL1     0.0429
     89 H         -4.199679   -6.726394   0.946597 H        1 UNL1     0.0429
     90 H         -4.113449   -6.421686   3.937007 H        1 UNL1     0.0308
     91 H         -2.481169   -7.960327   1.847773 H        1 UNL1     0.0233
     92 H         -2.056659   -7.930984   3.578214 H        1 UNL1     0.0233
     93 H         -3.571678   -8.633715   3.053345 H        1 UNL1     0.0233
     94 H         -2.111064   -5.308127   4.18053 H        1 UNL1     0.0233
     95 H         -1.653579   -5.516967   2.483055 H        1 UNL1     0.0233
     96 H         -2.921175   -4.349721   2.924333 H        1 UNL1     0.0233
     97 H         -9.316322   5.536684   1.692499 H        1 UNL1     0.0280
     98 H         -8.807958   5.157029   3.31565 H        1 UNL1     0.0280
     99 H         -7.627752   5.826706   2.150155 H        1 UNL1     0.0280
     100 H         -10.758403   2.195943   1.944121 H        1 UNL1     0.2922
     101 H         -3.09881   1.377469   -4.237729 H        1 UNL1     0.0236
     102 H         -3.906341   -0.133788   -4.812234 H        1 UNL1     0.0236
     103 H         -2.183002   -0.047824   -4.616758 H        1 UNL1     0.0236
     104 H         -0.322253   -0.791884   -3.589631 H        1 UNL1     0.2098
     105 H         1.258929   -0.857543   -0.830968 H        1 UNL1     0.0234
     106 H         1.486768   0.785752   -0.168572 H        1 UNL1     0.0234
     107 H         0.0   0.0   0.0 H        1 UNL1     0.0234
     108 H         -1.258146   2.59833   -2.419652 H        1 UNL1     0.2098
     109 H         -0.89284   1.993231   2.482461 H        1 UNL1     0.0234
     110 H         -0.910539   1.496621   0.760291 H        1 UNL1     0.0234
     111 H         0.333996   0.933544   1.819972 H        1 UNL1     0.0234
     112 H         3.562665   -0.53772   -1.29237 H        1 UNL1     0.0342
     113 H         2.199331   -0.477661   -0.119359 H        1 UNL1     0.0342
     114 H         2.293866   0.691104   -1.439595 H        1 UNL1     0.0342
     115 H         2.814011   4.657017   -2.498164 H        1 UNL1     0.0234
     116 H         1.332414   5.221046   -1.718723 H        1 UNL1     0.0234
     117 H         2.87383   5.071757   -0.849588 H        1 UNL1     0.0234
     118 H         -3.217493   4.551323   2.628517 H        1 UNL1     0.0309
     119 H         -4.829852   4.084875   3.253645 H        1 UNL1     0.0309
     120 H         -3.664187   2.888085   2.732997 H        1 UNL1     0.0309
     121 H         -0.358994   6.808684   -1.176841 H        1 UNL1     0.0524
     122 H         -1.316232   6.560452   0.289082 H        1 UNL1     0.0524
     123 H         0.380462   7.086739   0.423227 H        1 UNL1     0.0524
@<TRIPOS>BOND
     1     1     2    1
     2     1    42    1
     3     2     3    2
     4     3     4    1
     5     4     5    2
     6     5     7    1
     7     6    75    1
     8     6    76    1
     9     6    77    1
    10     7     9   am
    11     9    10    1
    12    10    11    2
    13    10    43    1
    14    11    14    1
    15    11    15    1
    16    12    13   ar
    17    12    27   ar
    18    12    43    1
    19    13    14    1
    20    13    30   ar
    21    14    17    2
    22    15    16    1
    23    16    17    1
    24    16    18    1
    25    16    22    1
    26    18    19    1
    27    19    20    1
    28    20    21    1
    29    21    22    1
    30    23    24    1
    31    23    88    1
    32    23    89    1
    33    24    25    1
    34    24    26    1
    35    24    90    1
    36    25    91    1
    37    25    92    1
    38    25    93    1
    39    26    94    1
    40    26    95    1
    41    26    96    1
    42    27    28   ar
    43    28    29   ar
    44    29    30   ar
    45    29    31    1
    46    30    33    1
    47    31    32    1
    48    32    33    1
    49    32    35    1
    50    34    97    1
    51    34    98    1
    52    34    99    1
    53    35    61    1
    54    36    37    1
    55    36    60    1
    56    37    38    1
    57    38    39    1
    58    39    40    1
    59    40    41    1
    60    41    42    1
    61    45   100    1
    62    47   101    1
    63    47   102    1
    64    47   103    1
    65    48   104    1
    66    49   105    1
    67    49   106    1
    68    49   107    1
    69    50   108    1
    70    51    59    1
    71    52   109    1
    72    52   110    1
    73    52   111    1
    74    53    54    1
    75    54    55    2
    76    54    56    1
    77    56   112    1
    78    56   113    1
    79    56   114    1
    80    57   115    1
    81    57   116    1
    82    57   117    1
    83    58   118    1
    84    58   119    1
    85    58   120    1
    86    59   121    1
    87    59   122    1
    88    59   123    1
    89    60    61    2
    90     1    47    1
    91     1    62    1
    92     2    63    1
    93     3    64    1
    94     4    65    1
    95     5     6    1
    96     7     8    2
    97     9    78    1
    98    15    79    1
    99    18    80    1
   100    18    81    1
   101    19    82    1
   102    19    83    1
   103    20    23    1
   104    21    84    1
   105    21    85    1
   106    22    86    1
   107    22    87    1
   108    27    45    1
   109    28    34    1
   110    32    58    1
   111    33    46    2
   112    36    51    1
   113    36    66    1
   114    37    52    1
   115    37    67    1
   116    38    53    1
   117    38    68    1
   118    42    48    1
   119    42    72    1
   120    43    44    2
   121    60    73    1
   122    61    74    1
   123    39    69    1
   124    39    57    1
   125    40    70    1
   126    40    50    1
   127    41    71    1
   128    41    49    1
