@<TRIPOS>MOLECULE
*****
 123 128 0 0 0
SMALL
GASTEIGER

@<TRIPOS>ATOM
     1 C         2.020509   -1.825497   4.57872 C.3        1 UNL1     0.0009
     2 C         3.608939   -2.41284   5.333011 C.2        1 UNL1     -0.0787
     3 C         4.412469   -3.474666   5.901263 C.2        1 UNL1     -0.0649
     4 C         6.039474   -3.413806   6.365492 C.2        1 UNL1     -0.0542
     5 C         7.19699   -4.181831   6.643651 C.2        1 UNL1     0.0115
     6 C         7.722468   -5.626329   6.868642 C.3        1 UNL1     -0.0348
     7 C         8.629155   -3.456646   6.642908 C.2        1 UNL1     0.2441
     8 O         9.217361   -3.144237   7.669036 O.2        1 UNL1     -0.2702
     9 N         9.280176   -3.439841   5.397098 N.am        1 UNL1     -0.2772
     10 C         8.901631   -2.333143   4.672359 C.2        1 UNL1     0.1049
     11 C         7.766887   -2.435058   4.004383 C.2        1 UNL1     0.0801
     12 C         8.625731   0.147504   4.838503 C.ar        1 UNL1     0.0753
     13 C         7.31283   -0.041234   4.300658 C.ar        1 UNL1     0.0305
     14 C         6.891265   -1.324734   3.743916 C.2        1 UNL1     0.0924
     15 N         7.013552   -3.51662   3.741255 N.pl3        1 UNL1     -0.3170
     16 C         5.972254   -3.116314   2.83257 C.3        1 UNL1     0.1275
     17 N         5.761886   -1.649993   3.12131 N.2        1 UNL1     -0.2557
     18 C         6.549239   -3.191681   1.422211 C.3        1 UNL1     0.0016
     19 C         7.080402   -4.596971   1.188513 C.3        1 UNL1     0.0026
     20 N         5.987561   -5.544446   1.35886 N.3        1 UNL1     -0.3018
     21 C         5.327612   -5.503986   2.665458 C.3        1 UNL1     0.0026
     22 C         4.797683   -4.084777   2.877394 C.3        1 UNL1     0.0016
     23 C         6.309493   -6.870447   0.870267 C.3        1 UNL1     0.0012
     24 C         5.272492   -7.328644   -0.16725 C.3        1 UNL1     -0.0339
     25 C         5.178742   -8.862076   -0.229328 C.3        1 UNL1     -0.0615
     26 C         3.923505   -6.697748   0.131053 C.3        1 UNL1     -0.0615
     27 C         9.060997   1.402995   5.256118 C.ar        1 UNL1     0.1347
     28 C         8.29044   2.547   5.148666 C.ar        1 UNL1     0.0342
     29 C         6.984152   2.328623   4.661751 C.ar        1 UNL1     0.1435
     30 C         6.521858   1.070581   4.273375 C.ar        1 UNL1     0.0774
     31 O         6.149944   3.357441   4.395971 O.3        1 UNL1     -0.4436
     32 C         5.164285   2.805572   3.510088 C.3        1 UNL1     0.3143
     33 C         5.184072   1.31379   3.775436 C.2        1 UNL1     0.2504
     34 C         8.774843   3.957415   5.338886 C.3        1 UNL1     -0.0327
     35 O         3.886019   3.289016   3.940868 O.2        1 UNL1     -0.4528
     36 C         1.738761   3.479853   0.816616 C.3        1 UNL1     0.0854
     37 C         1.369266   2.340518   -0.209499 C.3        1 UNL1     0.0236
     38 C         -0.202534   2.127202   -0.445473 C.3        1 UNL1     0.1131
     39 C         -1.166448   1.953168   0.796644 C.3        1 UNL1     0.0200
     40 C         -0.72851   0.975878   2.075531 C.3        1 UNL1     0.0661
     41 C         -0.159048   -0.617761   1.958743 C.3        1 UNL1     0.0091
     42 C         1.033982   -1.535044   3.007872 C.3        1 UNL1     0.0661
     43 C         9.540294   -1.021084   4.853918 C.2        1 UNL1     0.2131
     44 O         10.753154   -0.925913   4.905403 O.2        1 UNL1     -0.2851
     45 O         10.336364   1.49225   5.810114 O.3        1 UNL1     -0.5056
     46 O         4.2899   0.510607   3.62981 O.2        1 UNL1     -0.2836
     47 C         0.924088   -1.688187   5.669129 C.3        1 UNL1     -0.0566
     48 O         0.178121   -2.74033   3.125783 O.3        1 UNL1     -0.3909
     49 C         0.211466   -0.899355   0.519674 C.3        1 UNL1     -0.0577
     50 O         0.041975   1.69658   3.016096 O.3        1 UNL1     -0.3910
     51 O         0.658652   4.045743   1.52412 O.3        1 UNL1     -0.3753
     52 C         2.368428   1.140328   -0.130963 C.3        1 UNL1     -0.0564
     53 O         -0.521335   1.303782   -1.659009 O.3        1 UNL1     -0.4608
     54 C         0.29329   1.146639   -2.749708 C.2        1 UNL1     0.3042
     55 O         0.473053   1.944638   -3.668795 O.2        1 UNL1     -0.2512
     56 C         1.070177   -0.139075   -2.739828 C.3        1 UNL1     0.0332
     57 C         -1.783045   3.389971   1.133657 C.3        1 UNL1     -0.0567
     58 C         5.674314   3.063485   2.073119 C.3        1 UNL1     0.0210
     59 C         -0.009518   5.109533   0.847536 C.3        1 UNL1     0.0372
     60 C         2.765724   3.107043   1.827319 C.2        1 UNL1     -0.0208
     61 C         2.801271   3.321333   3.143206 C.2        1 UNL1     0.0882
     62 H         2.467783   -0.831503   4.457759 H        1 UNL1     0.0365
     63 H         4.162618   -1.473896   5.398553 H        1 UNL1     0.0576
     64 H         4.058184   -4.507489   5.930705 H        1 UNL1     0.0615
     65 H         6.266746   -2.344394   6.379185 H        1 UNL1     0.0622
     66 H         2.194046   4.268545   0.201208 H        1 UNL1     0.0645
     67 H         1.684691   2.746783   -1.186236 H        1 UNL1     0.0362
     68 H         -0.458141   3.106453   -0.878202 H        1 UNL1     0.0741
     69 H         -2.090551   1.502762   0.459633 H        1 UNL1     0.0359
     70 H         -1.713412   0.848575   2.564227 H        1 UNL1     0.0600
     71 H         -1.114147   -1.171429   2.049274 H        1 UNL1     0.0348
     72 H         0.687793   -0.685399   3.61415 H        1 UNL1     0.0602
     73 H         3.616832   2.711502   1.33092 H        1 UNL1     0.0628
     74 H         1.953357   3.668585   3.734557 H        1 UNL1     0.1022
     75 H         7.368837   -6.023628   7.850545 H        1 UNL1     0.0279
     76 H         7.373759   -6.38371   6.170182 H        1 UNL1     0.0279
     77 H         8.813852   -5.666364   6.998944 H        1 UNL1     0.0279
     78 H         9.013819   -4.262986   4.86085 H        1 UNL1     0.1553
     79 H         7.353296   -4.459132   3.797641 H        1 UNL1     0.1484
     80 H         5.764263   -2.935053   0.700602 H        1 UNL1     0.0317
     81 H         7.350865   -2.457557   1.287643 H        1 UNL1     0.0317
     82 H         7.91751   -4.833026   1.861894 H        1 UNL1     0.0428
     83 H         7.488735   -4.628069   0.177896 H        1 UNL1     0.0428
     84 H         4.460797   -6.168002   2.739797 H        1 UNL1     0.0428
     85 H         5.99374   -5.843677   3.470567 H        1 UNL1     0.0428
     86 H         4.209742   -4.126348   3.775495 H        1 UNL1     0.0317
     87 H         4.060684   -3.840401   2.102663 H        1 UNL1     0.0317
     88 H         7.293303   -6.826106   0.385038 H        1 UNL1     0.0429
     89 H         6.389682   -7.590617   1.694706 H        1 UNL1     0.0429
     90 H         5.565135   -6.956381   -1.156185 H        1 UNL1     0.0308
     91 H         4.181615   -9.187297   -0.540889 H        1 UNL1     0.0233
     92 H         5.92061   -9.266729   -0.921785 H        1 UNL1     0.0233
     93 H         5.377899   -9.33229   0.741275 H        1 UNL1     0.0233
     94 H         3.820015   -5.752598   -0.412839 H        1 UNL1     0.0233
     95 H         3.119415   -7.363728   -0.194327 H        1 UNL1     0.0233
     96 H         3.80459   -6.496486   1.199379 H        1 UNL1     0.0233
     97 H         8.689329   4.281796   6.371695 H        1 UNL1     0.0280
     98 H         9.834585   4.070108   5.075252 H        1 UNL1     0.0280
     99 H         8.178501   4.640174   4.71174 H        1 UNL1     0.0280
     100 H         10.949676   0.856662   5.485309 H        1 UNL1     0.2922
     101 H         1.068263   -0.759329   6.220574 H        1 UNL1     0.0236
     102 H         0.866942   -2.551926   6.330697 H        1 UNL1     0.0236
     103 H         -0.085071   -1.600988   5.233024 H        1 UNL1     0.0236
     104 H         -0.530155   -2.537485   3.767787 H        1 UNL1     0.2098
     105 H         1.261344   -1.134592   0.364009 H        1 UNL1     0.0234
     106 H         -0.418636   -1.637225   0.02324 H        1 UNL1     0.0234
     107 H         0.0   0.0   -0.0 H        1 UNL1     0.0234
     108 H         0.830645   2.032755   2.548384 H        1 UNL1     0.2098
     109 H         2.92309   0.998758   -1.069057 H        1 UNL1     0.0234
     110 H         3.073776   1.221382   0.703099 H        1 UNL1     0.0234
     111 H         1.847331   0.191226   0.052366 H        1 UNL1     0.0234
     112 H         1.445121   -0.339599   -1.731585 H        1 UNL1     0.0342
     113 H         0.481233   -0.976306   -3.111354 H        1 UNL1     0.0342
     114 H         1.937203   -0.02116   -3.404303 H        1 UNL1     0.0342
     115 H         -2.878731   3.393514   1.052125 H        1 UNL1     0.0234
     116 H         -1.526564   3.761012   2.127939 H        1 UNL1     0.0234
     117 H         -1.51221   4.168121   0.399441 H        1 UNL1     0.0234
     118 H         4.899146   3.521321   1.433972 H        1 UNL1     0.0309
     119 H         6.576074   3.683216   2.042054 H        1 UNL1     0.0309
     120 H         5.924167   2.137776   1.543269 H        1 UNL1     0.0309
     121 H         -0.069924   5.951809   1.536214 H        1 UNL1     0.0524
     122 H         0.541847   5.449351   -0.044965 H        1 UNL1     0.0524
     123 H         -1.006214   4.797519   0.548639 H        1 UNL1     0.0524
@<TRIPOS>BOND
     1     1     2    1
     2     1    42    1
     3     2     3    2
     4     3     4    1
     5     4     5    2
     6     5     7    1
     7     6    75    1
     8     6    76    1
     9     6    77    1
    10     7     9   am
    11     9    10    1
    12    10    11    2
    13    10    43    1
    14    11    14    1
    15    11    15    1
    16    12    13   ar
    17    12    27   ar
    18    12    43    1
    19    13    14    1
    20    13    30   ar
    21    14    17    2
    22    15    16    1
    23    16    17    1
    24    16    18    1
    25    16    22    1
    26    18    19    1
    27    19    20    1
    28    20    21    1
    29    21    22    1
    30    23    24    1
    31    23    88    1
    32    23    89    1
    33    24    25    1
    34    24    26    1
    35    24    90    1
    36    25    91    1
    37    25    92    1
    38    25    93    1
    39    26    94    1
    40    26    95    1
    41    26    96    1
    42    27    28   ar
    43    28    29   ar
    44    29    30   ar
    45    29    31    1
    46    30    33    1
    47    31    32    1
    48    32    33    1
    49    32    35    1
    50    34    97    1
    51    34    98    1
    52    34    99    1
    53    35    61    1
    54    36    37    1
    55    36    60    1
    56    37    38    1
    57    38    39    1
    58    39    40    1
    59    40    41    1
    60    41    42    1
    61    45   100    1
    62    47   101    1
    63    47   102    1
    64    47   103    1
    65    48   104    1
    66    49   105    1
    67    49   106    1
    68    49   107    1
    69    50   108    1
    70    51    59    1
    71    52   109    1
    72    52   110    1
    73    52   111    1
    74    53    54    1
    75    54    55    2
    76    54    56    1
    77    56   112    1
    78    56   113    1
    79    56   114    1
    80    57   115    1
    81    57   116    1
    82    57   117    1
    83    58   118    1
    84    58   119    1
    85    58   120    1
    86    59   121    1
    87    59   122    1
    88    59   123    1
    89    60    61    2
    90     1    47    1
    91     1    62    1
    92     2    63    1
    93     3    64    1
    94     4    65    1
    95     5     6    1
    96     7     8    2
    97     9    78    1
    98    15    79    1
    99    18    80    1
   100    18    81    1
   101    19    82    1
   102    19    83    1
   103    20    23    1
   104    21    84    1
   105    21    85    1
   106    22    86    1
   107    22    87    1
   108    27    45    1
   109    28    34    1
   110    32    58    1
   111    33    46    2
   112    36    51    1
   113    36    66    1
   114    37    52    1
   115    37    67    1
   116    38    53    1
   117    38    68    1
   118    42    48    1
   119    42    72    1
   120    43    44    2
   121    60    73    1
   122    61    74    1
   123    39    69    1
   124    39    57    1
   125    40    70    1
   126    40    50    1
   127    41    71    1
   128    41    49    1
