@<TRIPOS>MOLECULE
*****
 123 128 0 0 0
SMALL
GASTEIGER

@<TRIPOS>ATOM
     1 C         3.474497   3.799513   1.291636 C.3        1 UNL1     0.0009
     2 C         3.841671   5.589057   0.975801 C.2        1 UNL1     -0.0787
     3 C         4.693445   6.6165   0.414653 C.2        1 UNL1     -0.0649
     4 C         4.403014   8.282762   0.339955 C.2        1 UNL1     -0.0542
     5 C         4.750281   9.493944   -0.307749 C.2        1 UNL1     0.0115
     6 C         5.759303   10.148769   -1.290807 C.3        1 UNL1     -0.0348
     7 C         3.759841   10.751448   -0.186501 C.2        1 UNL1     0.2441
     8 O         3.969212   11.693301   0.565565 O.2        1 UNL1     -0.2702
     9 N         2.775059   10.824154   -1.187035 N.am        1 UNL1     -0.2772
     10 C         1.656931   10.114923   -0.812733 C.2        1 UNL1     0.1049
     11 C         1.692274   8.81334   -1.033769 C.2        1 UNL1     0.0801
     12 C         0.057408   9.788586   1.082621 C.ar        1 UNL1     0.0753
     13 C         0.292906   8.384375   0.936536 C.ar        1 UNL1     0.0305
     14 C         1.016882   7.845427   -0.21257 C.2        1 UNL1     0.0924
     15 N         2.557788   8.083334   -1.757995 N.pl3        1 UNL1     -0.3170
     16 C         2.053172   6.737302   -1.819759 C.3        1 UNL1     0.1275
     17 N         1.239414   6.580598   -0.558424 N.2        1 UNL1     -0.2557
     18 C         1.058582   6.679848   -2.975263 C.3        1 UNL1     0.0016
     19 C         1.757401   7.147072   -4.242126 C.3        1 UNL1     0.0026
     20 N         2.901345   6.281024   -4.491891 N.3        1 UNL1     -0.3018
     21 C         3.884808   6.222113   -3.408517 C.3        1 UNL1     0.0026
     22 C         3.162253   5.74616   -2.147059 C.3        1 UNL1     0.0016
     23 C         3.455451   6.447826   -5.82072 C.3        1 UNL1     0.0012
     24 C         2.494438   5.884803   -6.879595 C.3        1 UNL1     -0.0339
     25 C         2.11554   6.952153   -7.91943 C.3        1 UNL1     -0.0615
     26 C         3.102899   4.657145   -7.534889 C.3        1 UNL1     -0.0615
     27 C         -0.735752   10.283834   2.11497 C.ar        1 UNL1     0.1347
     28 C         -1.376258   9.472876   3.034833 C.ar        1 UNL1     0.0342
     29 C         -1.090422   8.097548   2.900912 C.ar        1 UNL1     0.1435
     30 C         -0.268766   7.590053   1.893662 C.ar        1 UNL1     0.0774
     31 O         -1.723705   7.169785   3.651389 O.3        1 UNL1     -0.4436
     32 C         -1.54513   5.939334   2.933771 C.3        1 UNL1     0.3143
     33 C         -0.312628   6.154598   2.078895 C.2        1 UNL1     0.2504
     34 C         -2.436097   9.909259   4.00767 C.3        1 UNL1     -0.0327
     35 O         -1.214793   4.929541   3.895253 O.2        1 UNL1     -0.4528
     36 C         -2.560653   1.671693   2.487001 C.3        1 UNL1     0.0854
     37 C         -2.24428   0.976687   1.107002 C.3        1 UNL1     0.0236
     38 C         -1.72241   -0.535771   1.215933 C.3        1 UNL1     0.1131
     39 C         -0.524466   -0.884882   2.18821 C.3        1 UNL1     0.0200
     40 C         0.819223   0.100824   2.261163 C.3        1 UNL1     0.0661
     41 C         1.712918   0.662363   0.93316 C.3        1 UNL1     0.0091
     42 C         2.627074   2.234652   0.6931 C.3        1 UNL1     0.0661
     43 C         0.612565   10.693494   0.045702 C.2        1 UNL1     0.2131
     44 O         0.180259   11.810385   -0.174304 O.2        1 UNL1     -0.2851
     45 O         -0.877346   11.666487   2.213265 O.3        1 UNL1     -0.5056
     46 O         0.46953   5.329274   1.663056 O.2        1 UNL1     -0.2836
     47 C         4.398212   3.24893   2.411275 C.3        1 UNL1     -0.0566
     48 O         3.847937   1.577023   0.167617 O.3        1 UNL1     -0.3909
     49 C         0.916927   0.41759   -0.329369 C.3        1 UNL1     -0.0577
     50 O         0.622231   1.148782   3.188904 O.3        1 UNL1     -0.3910
     51 O         -2.185426   0.951888   3.639614 O.3        1 UNL1     -0.3753
     52 C         -1.655325   1.986454   0.068516 C.3        1 UNL1     -0.0564
     53 O         -1.76504   -1.281031   -0.086026 O.3        1 UNL1     -0.4608
     54 C         -1.028908   -2.396757   -0.388008 C.2        1 UNL1     0.3042
     55 O         -0.018061   -2.458023   -1.086774 O.2        1 UNL1     -0.2512
     56 C         -1.527435   -3.645604   0.281742 C.3        1 UNL1     0.0332
     57 C         -1.155132   -1.388603   3.569043 C.3        1 UNL1     -0.0567
     58 C         -2.77476   5.790584   2.007806 C.3        1 UNL1     0.0210
     59 C         -2.954847   1.243474   4.805304 C.3        1 UNL1     0.0372
     60 C         -2.008933   3.045469   2.64031 C.2        1 UNL1     -0.0208
     61 C         -1.371816   3.611655   3.666107 C.2        1 UNL1     0.0882
     62 H         2.537385   4.097287   1.777293 H        1 UNL1     0.0365
     63 H         3.023512   6.064089   1.521172 H        1 UNL1     0.0576
     64 H         5.572425   6.367408   -0.184059 H        1 UNL1     0.0615
     65 H         3.565323   8.432322   1.026532 H        1 UNL1     0.0622
     66 H         -3.654039   1.783406   2.495531 H        1 UNL1     0.0645
     67 H         -3.236636   0.83372   0.645105 H        1 UNL1     0.0362
     68 H         -2.610292   -1.004695   1.666819 H        1 UNL1     0.0741
     69 H         -0.104083   -1.837453   1.894451 H        1 UNL1     0.0359
     70 H         1.530277   -0.58293   2.7631 H        1 UNL1     0.0600
     71 H         2.478973   -0.134777   0.86472 H        1 UNL1     0.0348
     72 H         2.496609   2.122516   1.77925 H        1 UNL1     0.0602
     73 H         -2.303663   3.635096   1.80801 H        1 UNL1     0.0628
     74 H         -0.985293   3.067177   4.528303 H        1 UNL1     0.1022
     75 H         6.459086   9.382154   -1.702679 H        1 UNL1     0.0279
     76 H         5.340886   10.59205   -2.191639 H        1 UNL1     0.0279
     77 H         6.458703   10.833368   -0.788946 H        1 UNL1     0.0279
     78 H         3.128657   10.407736   -2.045896 H        1 UNL1     0.1553
     79 H         3.161972   8.470216   -2.459576 H        1 UNL1     0.1484
     80 H         0.688421   5.652586   -3.077633 H        1 UNL1     0.0317
     81 H         0.185353   7.308837   -2.77156 H        1 UNL1     0.0317
     82 H         2.066285   8.200432   -4.171866 H        1 UNL1     0.0428
     83 H         1.029839   7.099921   -5.052978 H        1 UNL1     0.0428
     84 H         4.691885   5.504838   -3.58728 H        1 UNL1     0.0428
     85 H         4.404624   7.181004   -3.275718 H        1 UNL1     0.0428
     86 H         3.93208   5.587778   -1.414754 H        1 UNL1     0.0317
     87 H         2.752877   4.741109   -2.306373 H        1 UNL1     0.0317
     88 H         3.586443   7.52237   -6.003727 H        1 UNL1     0.0429
     89 H         4.44745   5.984785   -5.900121 H        1 UNL1     0.0429
     90 H         1.579014   5.538011   -6.385684 H        1 UNL1     0.0308
     91 H         2.996856   7.49978   -8.266548 H        1 UNL1     0.0233
     92 H         1.616111   6.495658   -8.777213 H        1 UNL1     0.0233
     93 H         1.416272   7.695957   -7.518663 H        1 UNL1     0.0233
     94 H         2.64221   4.483872   -8.513448 H        1 UNL1     0.0233
     95 H         4.174947   4.808517   -7.689039 H        1 UNL1     0.0233
     96 H         2.957195   3.763716   -6.921276 H        1 UNL1     0.0233
     97 H         -2.870909   9.068914   4.540577 H        1 UNL1     0.0280
     98 H         -2.03813   10.581078   4.77938 H        1 UNL1     0.0280
     99 H         -3.242778   10.429544   3.465762 H        1 UNL1     0.0280
     100 H         -1.765668   11.963625   2.303911 H        1 UNL1     0.2922
     101 H         4.073713   2.248518   2.696814 H        1 UNL1     0.0236
     102 H         4.474471   3.914868   3.270167 H        1 UNL1     0.0236
     103 H         5.436755   3.11787   2.064223 H        1 UNL1     0.0236
     104 H         4.418652   1.361422   0.931011 H        1 UNL1     0.2098
     105 H         0.688408   1.315851   -0.897452 H        1 UNL1     0.0234
     106 H         1.327896   -0.349818   -0.985202 H        1 UNL1     0.0234
     107 H         0.0   -0.0   0.0 H        1 UNL1     0.0234
     108 H         -0.061377   1.739631   2.818302 H        1 UNL1     0.2098
     109 H         -0.728717   2.457277   0.425496 H        1 UNL1     0.0234
     110 H         -1.483279   1.53949   -0.916556 H        1 UNL1     0.0234
     111 H         -2.350481   2.812643   -0.131773 H        1 UNL1     0.0234
     112 H         -0.886044   -4.491547   0.016518 H        1 UNL1     0.0342
     113 H         -1.596186   -3.531192   1.362495 H        1 UNL1     0.0342
     114 H         -2.537382   -3.857453   -0.095475 H        1 UNL1     0.0342
     115 H         -1.885033   -2.195169   3.4145 H        1 UNL1     0.0234
     116 H         -0.417248   -1.747098   4.289499 H        1 UNL1     0.0234
     117 H         -1.779619   -0.629252   4.070384 H        1 UNL1     0.0234
     118 H         -3.482601   5.028309   2.377813 H        1 UNL1     0.0309
     119 H         -3.311351   6.7318   1.851646 H        1 UNL1     0.0309
     120 H         -2.508001   5.424518   1.010339 H        1 UNL1     0.0309
     121 H         -2.334139   1.023747   5.67352 H        1 UNL1     0.0524
     122 H         -3.241111   2.306876   4.862448 H        1 UNL1     0.0524
     123 H         -3.854372   0.634702   4.823894 H        1 UNL1     0.0524
@<TRIPOS>BOND
     1     1     2    1
     2     1    42    1
     3     2     3    2
     4     3     4    1
     5     4     5    2
     6     5     7    1
     7     6    75    1
     8     6    76    1
     9     6    77    1
    10     7     9   am
    11     9    10    1
    12    10    11    2
    13    10    43    1
    14    11    14    1
    15    11    15    1
    16    12    13   ar
    17    12    27   ar
    18    12    43    1
    19    13    14    1
    20    13    30   ar
    21    14    17    2
    22    15    16    1
    23    16    17    1
    24    16    18    1
    25    16    22    1
    26    18    19    1
    27    19    20    1
    28    20    21    1
    29    21    22    1
    30    23    24    1
    31    23    88    1
    32    23    89    1
    33    24    25    1
    34    24    26    1
    35    24    90    1
    36    25    91    1
    37    25    92    1
    38    25    93    1
    39    26    94    1
    40    26    95    1
    41    26    96    1
    42    27    28   ar
    43    28    29   ar
    44    29    30   ar
    45    29    31    1
    46    30    33    1
    47    31    32    1
    48    32    33    1
    49    32    35    1
    50    34    97    1
    51    34    98    1
    52    34    99    1
    53    35    61    1
    54    36    37    1
    55    36    60    1
    56    37    38    1
    57    38    39    1
    58    39    40    1
    59    40    41    1
    60    41    42    1
    61    45   100    1
    62    47   101    1
    63    47   102    1
    64    47   103    1
    65    48   104    1
    66    49   105    1
    67    49   106    1
    68    49   107    1
    69    50   108    1
    70    51    59    1
    71    52   109    1
    72    52   110    1
    73    52   111    1
    74    53    54    1
    75    54    55    2
    76    54    56    1
    77    56   112    1
    78    56   113    1
    79    56   114    1
    80    57   115    1
    81    57   116    1
    82    57   117    1
    83    58   118    1
    84    58   119    1
    85    58   120    1
    86    59   121    1
    87    59   122    1
    88    59   123    1
    89    60    61    2
    90     1    47    1
    91     1    62    1
    92     2    63    1
    93     3    64    1
    94     4    65    1
    95     5     6    1
    96     7     8    2
    97     9    78    1
    98    15    79    1
    99    18    80    1
   100    18    81    1
   101    19    82    1
   102    19    83    1
   103    20    23    1
   104    21    84    1
   105    21    85    1
   106    22    86    1
   107    22    87    1
   108    27    45    1
   109    28    34    1
   110    32    58    1
   111    33    46    2
   112    36    51    1
   113    36    66    1
   114    37    52    1
   115    37    67    1
   116    38    53    1
   117    38    68    1
   118    42    48    1
   119    42    72    1
   120    43    44    2
   121    60    73    1
   122    61    74    1
   123    39    69    1
   124    39    57    1
   125    40    70    1
   126    40    50    1
   127    41    71    1
   128    41    49    1
