@<TRIPOS>MOLECULE
*****
 123 128 0 0 0
SMALL
GASTEIGER

@<TRIPOS>ATOM
     1 C         4.959478   2.324372   -0.012077 C.3        1 UNL1     0.0009
     2 C         6.408644   2.847514   -1.043231 C.2        1 UNL1     -0.0787
     3 C         7.751325   2.615193   -1.532395 C.2        1 UNL1     -0.0649
     4 C         8.605567   3.506657   -2.690807 C.2        1 UNL1     -0.0542
     5 C         9.686032   3.48587   -3.606908 C.2        1 UNL1     0.0115
     6 C         10.932665   2.678083   -4.061562 C.3        1 UNL1     -0.0348
     7 C         9.731861   4.581703   -4.779103 C.2        1 UNL1     0.2441
     8 O         10.455586   5.567237   -4.740759 O.2        1 UNL1     -0.2702
     9 N         9.082535   4.201491   -5.966524 N.am        1 UNL1     -0.2772
     10 C         7.751596   4.547268   -5.917932 C.2        1 UNL1     0.1049
     11 C         6.953672   3.703685   -5.288722 C.2        1 UNL1     0.0801
     12 C         6.214398   6.450483   -5.396273 C.ar        1 UNL1     0.0753
     13 C         5.499109   5.539614   -4.55527 C.ar        1 UNL1     0.0305
     14 C         5.769444   4.10384   -4.578189 C.2        1 UNL1     0.0924
     15 N         7.185452   2.450435   -4.86191 N.pl3        1 UNL1     -0.3170
     16 C         5.937722   1.907789   -4.393977 C.3        1 UNL1     0.1275
     17 N         5.145072   3.112442   -3.948732 N.2        1 UNL1     -0.2557
     18 C         5.205837   1.344522   -5.60838 C.3        1 UNL1     0.0016
     19 C         6.110774   0.334981   -6.296498 C.3        1 UNL1     0.0026
     20 N         6.441151   -0.719762   -5.348132 N.3        1 UNL1     -0.3018
     21 C         7.093714   -0.267484   -4.117695 C.3        1 UNL1     0.0026
     22 C         6.165339   0.742185   -3.440507 C.3        1 UNL1     0.0016
     23 C         7.045795   -1.876153   -5.978853 C.3        1 UNL1     0.0012
     24 C         6.008938   -2.632098   -6.824567 C.3        1 UNL1     -0.0339
     25 C         6.0842   -2.22269   -8.304694 C.3        1 UNL1     -0.0615
     26 C         6.186357   -4.130287   -6.649264 C.3        1 UNL1     -0.0615
     27 C         5.869645   7.798627   -5.457684 C.ar        1 UNL1     0.1347
     28 C         4.807508   8.342225   -4.757386 C.ar        1 UNL1     0.0342
     29 C         4.148556   7.436876   -3.89873 C.ar        1 UNL1     0.1435
     30 C         4.50579   6.091601   -3.799531 C.ar        1 UNL1     0.0774
     31 O         3.026261   7.786646   -3.233057 O.3        1 UNL1     -0.4436
     32 C         2.411205   6.538921   -2.878432 C.3        1 UNL1     0.3143
     33 C         3.538574   5.52638   -2.882042 C.2        1 UNL1     0.2504
     34 C         4.224576   9.712575   -4.963373 C.3        1 UNL1     -0.0327
     35 O         1.96018   6.656264   -1.523419 O.2        1 UNL1     -0.4528
     36 C         -1.084513   4.407149   -1.241617 C.3        1 UNL1     0.0854
     37 C         -1.212913   2.862771   -1.534759 C.3        1 UNL1     0.0236
     38 C         -1.793405   1.990394   -0.320785 C.3        1 UNL1     0.1131
     39 C         -1.157531   2.13016   1.12088 C.3        1 UNL1     0.0200
     40 C         0.498509   2.189772   1.311708 C.3        1 UNL1     0.0661
     41 C         1.616339   1.108347   0.634518 C.3        1 UNL1     0.0091
     42 C         3.339198   1.378931   0.065357 C.3        1 UNL1     0.0661
     43 C         7.278335   5.894591   -6.268787 C.2        1 UNL1     0.2131
     44 O         7.678968   6.447277   -7.277137 O.2        1 UNL1     -0.2851
     45 O         6.645441   8.626682   -6.266326 O.3        1 UNL1     -0.5056
     46 O         3.628162   4.496185   -2.25234 O.2        1 UNL1     -0.2836
     47 C         5.248118   2.578353   1.491971 C.3        1 UNL1     -0.0566
     48 O         3.877781   0.186175   0.762767 O.3        1 UNL1     -0.3909
     49 C         0.921588   0.293627   -0.43368 C.3        1 UNL1     -0.0577
     50 O         0.970375   3.51588   1.18324 O.3        1 UNL1     -0.3910
     51 O         -1.325397   4.803626   0.089627 O.3        1 UNL1     -0.3753
     52 C         -0.055628   2.346212   -2.450624 C.3        1 UNL1     -0.0564
     53 O         -2.232628   0.613911   -0.726621 O.3        1 UNL1     -0.4608
     54 C         -2.404003   -0.448477   0.121844 C.2        1 UNL1     0.3042
     55 O         -1.726181   -1.473581   0.181472 O.2        1 UNL1     -0.2512
     56 C         -3.525905   -0.259746   1.10288 C.3        1 UNL1     0.0332
     57 C         -2.040269   3.184983   1.937149 C.3        1 UNL1     -0.0567
     58 C         1.428293   6.195211   -4.021794 C.3        1 UNL1     0.0210
     59 C         -1.79048   6.144016   0.241013 C.3        1 UNL1     0.0372
     60 C         0.211919   5.017839   -1.643466 C.2        1 UNL1     -0.0208
     61 C         1.00533   5.86908   -0.991828 C.2        1 UNL1     0.0882
     62 H         4.408313   3.199419   -0.377072 H        1 UNL1     0.0365
     63 H         6.058999   3.814878   -1.409869 H        1 UNL1     0.0576
     64 H         8.295731   1.698042   -1.296675 H        1 UNL1     0.0615
     65 H         8.023757   4.426771   -2.792646 H        1 UNL1     0.0622
     66 H         -1.848043   4.873668   -1.879918 H        1 UNL1     0.0645
     67 H         -2.036845   2.796362   -2.266391 H        1 UNL1     0.0362
     68 H         -2.798224   2.432469   -0.240593 H        1 UNL1     0.0741
     69 H         -1.432869   1.264294   1.70814 H        1 UNL1     0.0359
     70 H         0.573602   1.973142   2.394525 H        1 UNL1     0.0600
     71 H         1.692355   0.369271   1.456068 H        1 UNL1     0.0348
     72 H         3.106769   2.217414   0.737844 H        1 UNL1     0.0602
     73 H         0.412639   4.77564   -2.657518 H        1 UNL1     0.0628
     74 H         0.902075   6.123559   0.063547 H        1 UNL1     0.1022
     75 H         11.039612   1.747258   -3.453977 H        1 UNL1     0.0279
     76 H         10.916903   2.29332   -5.078803 H        1 UNL1     0.0279
     77 H         11.878199   3.193213   -3.837272 H        1 UNL1     0.0279
     78 H         9.132655   3.190672   -6.0752 H        1 UNL1     0.1553
     79 H         7.934868   1.876027   -5.201564 H        1 UNL1     0.1484
     80 H         4.268099   0.881797   -5.277776 H        1 UNL1     0.0317
     81 H         4.932262   2.143598   -6.305722 H        1 UNL1     0.0317
     82 H         7.020302   0.808468   -6.694595 H        1 UNL1     0.0428
     83 H         5.570168   -0.052805   -7.160452 H        1 UNL1     0.0428
     84 H         7.258592   -1.067347   -3.389104 H        1 UNL1     0.0428
     85 H         8.100049   0.129188   -4.310719 H        1 UNL1     0.0428
     86 H         6.610395   0.94919   -2.484965 H        1 UNL1     0.0317
     87 H         5.215126   0.260749   -3.178955 H        1 UNL1     0.0317
     88 H         7.847258   -1.52384   -6.641293 H        1 UNL1     0.0429
     89 H         7.509868   -2.538192   -5.236482 H        1 UNL1     0.0429
     90 H         5.004209   -2.403577   -6.449718 H        1 UNL1     0.0308
     91 H         7.084735   -2.391987   -8.713804 H        1 UNL1     0.0233
     92 H         5.355316   -2.780478   -8.897322 H        1 UNL1     0.0233
     93 H         5.853799   -1.161246   -8.456637 H        1 UNL1     0.0233
     94 H         5.585062   -4.670857   -7.388225 H        1 UNL1     0.0233
     95 H         7.234241   -4.402934   -6.802774 H        1 UNL1     0.0233
     96 H         5.879956   -4.454268   -5.650704 H        1 UNL1     0.0233
     97 H         3.364982   9.89003   -4.323967 H        1 UNL1     0.0280
     98 H         4.943715   10.507912   -4.727714 H        1 UNL1     0.0280
     99 H         3.903854   9.823359   -6.012162 H        1 UNL1     0.0280
     100 H         6.158318   9.121729   -6.901356 H        1 UNL1     0.2922
     101 H         4.374731   2.307449   2.084815 H        1 UNL1     0.0236
     102 H         5.583558   3.594134   1.698498 H        1 UNL1     0.0236
     103 H         6.05654   1.932444   1.873348 H        1 UNL1     0.0236
     104 H         4.220674   0.480852   1.629116 H        1 UNL1     0.2098
     105 H         0.700244   0.843485   -1.344983 H        1 UNL1     0.0234
     106 H         1.406592   -0.652908   -0.671947 H        1 UNL1     0.0234
     107 H         0.0   -0.0   0.0 H        1 UNL1     0.0234
     108 H         0.797337   3.797625   0.264303 H        1 UNL1     0.2098
     109 H         0.934264   2.509676   -2.002178 H        1 UNL1     0.0234
     110 H         -0.163235   1.291709   -2.726647 H        1 UNL1     0.0234
     111 H         -0.036138   2.872908   -3.414034 H        1 UNL1     0.0234
     112 H         -3.595034   -1.130976   1.761306 H        1 UNL1     0.0342
     113 H         -3.416074   0.657726   1.679099 H        1 UNL1     0.0342
     114 H         -4.466242   -0.188202   0.539133 H        1 UNL1     0.0342
     115 H         -3.088221   2.864854   2.017788 H        1 UNL1     0.0234
     116 H         -1.677492   3.379129   2.94846 H        1 UNL1     0.0234
     117 H         -2.152784   4.1553   1.423565 H        1 UNL1     0.0234
     118 H         0.459313   6.711327   -3.904708 H        1 UNL1     0.0309
     119 H         1.832244   6.412902   -5.015592 H        1 UNL1     0.0309
     120 H         1.15035   5.135621   -4.032877 H        1 UNL1     0.0309
     121 H         -1.012543   6.807458   -0.135836 H        1 UNL1     0.0524
     122 H         -2.704663   6.338271   -0.344283 H        1 UNL1     0.0524
     123 H         -1.989965   6.356699   1.287467 H        1 UNL1     0.0524
@<TRIPOS>BOND
     1     1     2    1
     2     1    42    1
     3     2     3    2
     4     3     4    1
     5     4     5    2
     6     5     7    1
     7     6    75    1
     8     6    76    1
     9     6    77    1
    10     7     9   am
    11     9    10    1
    12    10    11    2
    13    10    43    1
    14    11    14    1
    15    11    15    1
    16    12    13   ar
    17    12    27   ar
    18    12    43    1
    19    13    14    1
    20    13    30   ar
    21    14    17    2
    22    15    16    1
    23    16    17    1
    24    16    18    1
    25    16    22    1
    26    18    19    1
    27    19    20    1
    28    20    21    1
    29    21    22    1
    30    23    24    1
    31    23    88    1
    32    23    89    1
    33    24    25    1
    34    24    26    1
    35    24    90    1
    36    25    91    1
    37    25    92    1
    38    25    93    1
    39    26    94    1
    40    26    95    1
    41    26    96    1
    42    27    28   ar
    43    28    29   ar
    44    29    30   ar
    45    29    31    1
    46    30    33    1
    47    31    32    1
    48    32    33    1
    49    32    35    1
    50    34    97    1
    51    34    98    1
    52    34    99    1
    53    35    61    1
    54    36    37    1
    55    36    60    1
    56    37    38    1
    57    38    39    1
    58    39    40    1
    59    40    41    1
    60    41    42    1
    61    45   100    1
    62    47   101    1
    63    47   102    1
    64    47   103    1
    65    48   104    1
    66    49   105    1
    67    49   106    1
    68    49   107    1
    69    50   108    1
    70    51    59    1
    71    52   109    1
    72    52   110    1
    73    52   111    1
    74    53    54    1
    75    54    55    2
    76    54    56    1
    77    56   112    1
    78    56   113    1
    79    56   114    1
    80    57   115    1
    81    57   116    1
    82    57   117    1
    83    58   118    1
    84    58   119    1
    85    58   120    1
    86    59   121    1
    87    59   122    1
    88    59   123    1
    89    60    61    2
    90     1    47    1
    91     1    62    1
    92     2    63    1
    93     3    64    1
    94     4    65    1
    95     5     6    1
    96     7     8    2
    97     9    78    1
    98    15    79    1
    99    18    80    1
   100    18    81    1
   101    19    82    1
   102    19    83    1
   103    20    23    1
   104    21    84    1
   105    21    85    1
   106    22    86    1
   107    22    87    1
   108    27    45    1
   109    28    34    1
   110    32    58    1
   111    33    46    2
   112    36    51    1
   113    36    66    1
   114    37    52    1
   115    37    67    1
   116    38    53    1
   117    38    68    1
   118    42    48    1
   119    42    72    1
   120    43    44    2
   121    60    73    1
   122    61    74    1
   123    39    69    1
   124    39    57    1
   125    40    70    1
   126    40    50    1
   127    41    71    1
   128    41    49    1
