@<TRIPOS>MOLECULE
*****
 123 128 0 0 0
SMALL
GASTEIGER

@<TRIPOS>ATOM
     1 C         5.173654   1.730734   0.486968 C.3        1 UNL1     0.0009
     2 C         6.612756   2.530944   -0.364904 C.2        1 UNL1     -0.0787
     3 C         7.893916   2.427582   -1.031231 C.2        1 UNL1     -0.0649
     4 C         8.775368   3.658888   -1.788386 C.2        1 UNL1     -0.0542
     5 C         9.795928   3.94705   -2.7278 C.2        1 UNL1     0.0115
     6 C         10.921415   3.316806   -3.593476 C.3        1 UNL1     -0.0348
     7 C         9.896243   5.429417   -3.335677 C.2        1 UNL1     0.2441
     8 O         10.723264   6.248447   -2.959176 O.2        1 UNL1     -0.2702
     9 N         9.146135   5.638026   -4.506135 N.am        1 UNL1     -0.2772
     10 C         7.864981   6.029571   -4.192036 C.2        1 UNL1     0.1049
     11 C         7.015884   5.061449   -3.898784 C.2        1 UNL1     0.0801
     12 C         6.573104   7.642109   -2.782032 C.ar        1 UNL1     0.0753
     13 C         5.810259   6.517314   -2.333132 C.ar        1 UNL1     0.0305
     14 C         5.922172   5.21063   -2.977418 C.2        1 UNL1     0.0924
     15 N         7.133664   3.731901   -4.056756 N.pl3        1 UNL1     -0.3170
     16 C         5.86184   3.137556   -3.741365 C.3        1 UNL1     0.1275
     17 N         5.229389   4.095931   -2.761954 N.2        1 UNL1     -0.2557
     18 C         5.008527   3.198554   -5.00463 C.3        1 UNL1     0.0016
     19 C         5.760347   2.510763   -6.133036 C.3        1 UNL1     0.0026
     20 N         6.025767   1.132048   -5.746095 N.3        1 UNL1     -0.3018
     21 C         6.789214   0.970025   -4.507036 C.3        1 UNL1     0.0026
     22 C         6.013548   1.664323   -3.386238 C.3        1 UNL1     0.0016
     23 C         6.46674   0.309939   -6.855294 C.3        1 UNL1     0.0012
     24 C         5.308757   0.060093   -7.834277 C.3        1 UNL1     -0.0339
     25 C         5.33289   1.061111   -9.001084 C.3        1 UNL1     -0.0615
     26 C         5.345261   -1.375566   -8.328576 C.3        1 UNL1     -0.0615
     27 C         6.373271   8.911006   -2.243437 C.ar        1 UNL1     0.1347
     28 C         5.415702   9.184838   -1.283162 C.ar        1 UNL1     0.0342
     29 C         4.710336   8.053315   -0.821341 C.ar        1 UNL1     0.1435
     30 C         4.924919   6.770061   -1.325756 C.ar        1 UNL1     0.0774
     31 O         3.67022   8.171365   0.032608 O.3        1 UNL1     -0.4436
     32 C         2.94406   6.941008   -0.108061 C.3        1 UNL1     0.3143
     33 C         3.95351   5.94381   -0.63987 C.2        1 UNL1     0.2504
     34 C         4.973992   10.552924   -0.843467 C.3        1 UNL1     -0.0327
     35 O         2.58258   6.506776   1.208763 O.2        1 UNL1     -0.4528
     36 C         -0.667572   4.58585   0.815518 C.3        1 UNL1     0.0854
     37 C         -0.977874   3.325564   -0.080537 C.3        1 UNL1     0.0236
     38 C         -1.582506   2.067382   0.708857 C.3        1 UNL1     0.1131
     39 C         -0.85794   1.535021   2.010343 C.3        1 UNL1     0.0200
     40 C         0.802743   1.383571   2.050738 C.3        1 UNL1     0.0661
     41 C         1.758716   0.610266   0.882096 C.3        1 UNL1     0.0091
     42 C         3.46728   0.966205   0.316836 C.3        1 UNL1     0.0661
     43 C         7.521783   7.430004   -3.903317 C.2        1 UNL1     0.2131
     44 O         7.924483   8.326   -4.622874 O.2        1 UNL1     -0.2851
     45 O         7.188984   9.942789   -2.703301 O.3        1 UNL1     -0.5056
     46 O         3.965265   4.740344   -0.508017 O.2        1 UNL1     -0.2836
     47 C         5.569267   1.301136   1.925341 C.3        1 UNL1     -0.0566
     48 O         3.910837   -0.446422   0.39965 O.3        1 UNL1     -0.3909
     49 C         0.923021   0.379545   -0.357209 C.3        1 UNL1     -0.0577
     50 O         1.407511   2.599631   2.442116 O.3        1 UNL1     -0.3910
     51 O         -0.791573   4.397876   2.207179 O.3        1 UNL1     -0.3753
     52 C         0.065366   3.160316   -1.233487 C.3        1 UNL1     -0.0564
     53 O         -2.189318   1.02975   -0.189711 O.3        1 UNL1     -0.4608
     54 C         -2.416127   -0.279133   0.146908 C.2        1 UNL1     0.3042
     55 O         -1.847761   -1.274566   -0.300207 O.2        1 UNL1     -0.2512
     56 C         -3.445539   -0.452581   1.227158 C.3        1 UNL1     0.0332
     57 C         -1.575874   2.20773   3.271378 C.3        1 UNL1     -0.0567
     58 C         1.869152   7.188966   -1.191859 C.3        1 UNL1     0.0210
     59 C         -1.138796   5.570721   2.941845 C.3        1 UNL1     0.0372
     60 C         0.66354   5.209964   0.583602 C.2        1 UNL1     -0.0208
     61 C         1.578507   5.642712   1.452111 C.2        1 UNL1     0.0882
     62 H         4.701308   2.716683   0.573604 H        1 UNL1     0.0365
     63 H         6.350342   3.585785   -0.26041 H        1 UNL1     0.0576
     64 H         8.347984   1.4589   -1.251652 H        1 UNL1     0.0615
     65 H         8.291758   4.576337   -1.442132 H        1 UNL1     0.0622
     66 H         -1.409717   5.334758   0.505027 H        1 UNL1     0.0645
     67 H         -1.842648   3.637472   -0.691634 H        1 UNL1     0.0362
     68 H         -2.527811   2.507966   1.06072 H        1 UNL1     0.0741
     69 H         -1.192973   0.525294   2.206848 H        1 UNL1     0.0359
     70 H         0.912643   0.723645   2.932487 H        1 UNL1     0.0600
     71 H         1.798879   -0.410661   1.309943 H        1 UNL1     0.0348
     72 H         3.363692   1.455677   1.296123 H        1 UNL1     0.0602
     73 H         0.781564   5.405847   -0.453195 H        1 UNL1     0.0628
     74 H         1.560803   5.433086   2.522148 H        1 UNL1     0.1022
     75 H         10.962023   2.211515   -3.439476 H        1 UNL1     0.0279
     76 H         10.807479   3.39902   -4.672053 H        1 UNL1     0.0279
     77 H         11.927756   3.618206   -3.267691 H        1 UNL1     0.0279
     78 H         9.080727   4.767828   -5.030113 H        1 UNL1     0.1553
     79 H         7.797053   3.300967   -4.674125 H        1 UNL1     0.1484
     80 H         4.045602   2.711244   -4.809513 H        1 UNL1     0.0317
     81 H         4.785482   4.235865   -5.276454 H        1 UNL1     0.0317
     82 H         6.692768   3.038502   -6.382023 H        1 UNL1     0.0428
     83 H         5.134899   2.567332   -7.024475 H        1 UNL1     0.0428
     84 H         6.90597   -0.073068   -4.19698 H        1 UNL1     0.0428
     85 H         7.82056   1.334271   -4.611762 H        1 UNL1     0.0428
     86 H         6.529578   1.41294   -2.478214 H        1 UNL1     0.0317
     87 H         5.032469   1.190312   -3.260167 H        1 UNL1     0.0317
     88 H         7.262258   0.849776   -7.38541 H        1 UNL1     0.0429
     89 H         6.898975   -0.635716   -6.503609 H        1 UNL1     0.0429
     90 H         4.357251   0.168962   -7.300426 H        1 UNL1     0.0308
     91 H         6.280504   1.014027   -9.545981 H        1 UNL1     0.0233
     92 H         4.510779   0.866737   -9.693877 H        1 UNL1     0.0233
     93 H         5.210589   2.09776   -8.66458 H        1 UNL1     0.0233
     94 H         4.646906   -1.505831   -9.162343 H        1 UNL1     0.0233
     95 H         6.348509   -1.621742   -8.687537 H        1 UNL1     0.0233
     96 H         5.07184   -2.077599   -7.535885 H        1 UNL1     0.0233
     97 H         4.180893   10.506663   -0.103139 H        1 UNL1     0.0280
     98 H         5.789041   11.120482   -0.375675 H        1 UNL1     0.0280
     99 H         4.60185   11.117995   -1.713697 H        1 UNL1     0.0280
     100 H         6.724457   10.694509   -3.02696 H        1 UNL1     0.2922
     101 H         4.705189   0.871052   2.431359 H        1 UNL1     0.0236
     102 H         6.023251   2.105392   2.503314 H        1 UNL1     0.0236
     103 H         6.322637   0.495763   1.924558 H        1 UNL1     0.0236
     104 H         4.330406   -0.57311   1.273082 H        1 UNL1     0.2098
     105 H         0.713271   1.278606   -0.931236 H        1 UNL1     0.0234
     106 H         1.289219   -0.410396   -1.012814 H        1 UNL1     0.0234
     107 H         0.0   -0.0   0.0 H        1 UNL1     0.0234
     108 H         1.20854   3.258694   1.749429 H        1 UNL1     0.2098
     109 H         1.090001   3.043523   -0.853758 H        1 UNL1     0.0234
     110 H         -0.170416   2.33343   -1.912021 H        1 UNL1     0.0234
     111 H         0.089351   4.042448   -1.887104 H        1 UNL1     0.0234
     112 H         -3.574571   -1.515872   1.451008 H        1 UNL1     0.0342
     113 H         -3.194305   0.108267   2.126143 H        1 UNL1     0.0342
     114 H         -4.404285   -0.068574   0.852312 H        1 UNL1     0.0342
     115 H         -2.64096   1.943161   3.324134 H        1 UNL1     0.0234
     116 H         -1.124729   1.946455   4.230675 H        1 UNL1     0.0234
     117 H         -1.632439   3.308179   3.210094 H        1 UNL1     0.0234
     118 H         0.970057   7.679472   -0.779501 H        1 UNL1     0.0309
     119 H         2.240147   7.774844   -2.038801 H        1 UNL1     0.0309
     120 H         1.477011   6.258012   -1.615719 H        1 UNL1     0.0309
     121 H         -0.337816   6.296233   2.802493 H        1 UNL1     0.0524
     122 H         -2.071664   6.031983   2.577109 H        1 UNL1     0.0524
     123 H         -1.251137   5.334287   3.996157 H        1 UNL1     0.0524
@<TRIPOS>BOND
     1     1     2    1
     2     1    42    1
     3     2     3    2
     4     3     4    1
     5     4     5    2
     6     5     7    1
     7     6    75    1
     8     6    76    1
     9     6    77    1
    10     7     9   am
    11     9    10    1
    12    10    11    2
    13    10    43    1
    14    11    14    1
    15    11    15    1
    16    12    13   ar
    17    12    27   ar
    18    12    43    1
    19    13    14    1
    20    13    30   ar
    21    14    17    2
    22    15    16    1
    23    16    17    1
    24    16    18    1
    25    16    22    1
    26    18    19    1
    27    19    20    1
    28    20    21    1
    29    21    22    1
    30    23    24    1
    31    23    88    1
    32    23    89    1
    33    24    25    1
    34    24    26    1
    35    24    90    1
    36    25    91    1
    37    25    92    1
    38    25    93    1
    39    26    94    1
    40    26    95    1
    41    26    96    1
    42    27    28   ar
    43    28    29   ar
    44    29    30   ar
    45    29    31    1
    46    30    33    1
    47    31    32    1
    48    32    33    1
    49    32    35    1
    50    34    97    1
    51    34    98    1
    52    34    99    1
    53    35    61    1
    54    36    37    1
    55    36    60    1
    56    37    38    1
    57    38    39    1
    58    39    40    1
    59    40    41    1
    60    41    42    1
    61    45   100    1
    62    47   101    1
    63    47   102    1
    64    47   103    1
    65    48   104    1
    66    49   105    1
    67    49   106    1
    68    49   107    1
    69    50   108    1
    70    51    59    1
    71    52   109    1
    72    52   110    1
    73    52   111    1
    74    53    54    1
    75    54    55    2
    76    54    56    1
    77    56   112    1
    78    56   113    1
    79    56   114    1
    80    57   115    1
    81    57   116    1
    82    57   117    1
    83    58   118    1
    84    58   119    1
    85    58   120    1
    86    59   121    1
    87    59   122    1
    88    59   123    1
    89    60    61    2
    90     1    47    1
    91     1    62    1
    92     2    63    1
    93     3    64    1
    94     4    65    1
    95     5     6    1
    96     7     8    2
    97     9    78    1
    98    15    79    1
    99    18    80    1
   100    18    81    1
   101    19    82    1
   102    19    83    1
   103    20    23    1
   104    21    84    1
   105    21    85    1
   106    22    86    1
   107    22    87    1
   108    27    45    1
   109    28    34    1
   110    32    58    1
   111    33    46    2
   112    36    51    1
   113    36    66    1
   114    37    52    1
   115    37    67    1
   116    38    53    1
   117    38    68    1
   118    42    48    1
   119    42    72    1
   120    43    44    2
   121    60    73    1
   122    61    74    1
   123    39    69    1
   124    39    57    1
   125    40    70    1
   126    40    50    1
   127    41    71    1
   128    41    49    1
