@<TRIPOS>MOLECULE
*****
 123 128 0 0 0
SMALL
GASTEIGER

@<TRIPOS>ATOM
     1 C         5.168128   1.744201   0.497475 C.3        1 UNL1     0.0009
     2 C         6.606497   2.549172   -0.351145 C.2        1 UNL1     -0.0787
     3 C         7.889053   2.449956   -1.015414 C.2        1 UNL1     -0.0649
     4 C         8.768448   3.684418   -1.769818 C.2        1 UNL1     -0.0542
     5 C         9.789808   3.976301   -2.707212 C.2        1 UNL1     0.0115
     6 C         10.918452   3.349991   -3.571631 C.3        1 UNL1     -0.0348
     7 C         9.88714   5.459558   -3.3134 C.2        1 UNL1     0.2441
     8 O         10.711308   6.280432   -2.934665 O.2        1 UNL1     -0.2702
     9 N         9.138445   5.667345   -4.484908 N.am        1 UNL1     -0.2772
     10 C         7.85571   6.055104   -4.172573 C.2        1 UNL1     0.1049
     11 C         7.008739   5.084391   -3.881746 C.2        1 UNL1     0.0801
     12 C         6.557104   7.662695   -2.763102 C.ar        1 UNL1     0.0753
     13 C         5.796546   6.535382   -2.316642 C.ar        1 UNL1     0.0305
     14 C         5.913076   5.229669   -2.962076 C.2        1 UNL1     0.0924
     15 N         7.13038   3.755328   -4.04088 N.pl3        1 UNL1     -0.3170
     16 C         5.859636   3.157226   -3.728247 C.3        1 UNL1     0.1275
     17 N         5.222947   4.112881   -2.748923 N.2        1 UNL1     -0.2557
     18 C         5.008292   3.217218   -4.992887 C.3        1 UNL1     0.0016
     19 C         5.76387   2.532622   -6.120726 C.3        1 UNL1     0.0026
     20 N         6.032363   1.154231   -5.734749 N.3        1 UNL1     -0.3018
     21 C         6.794155   0.992997   -4.49457 C.3        1 UNL1     0.0026
     22 C         6.014727   1.684044   -3.374372 C.3        1 UNL1     0.0016
     23 C         6.477426   0.334458   -6.844044 C.3        1 UNL1     0.0012
     24 C         5.322892   0.08613   -7.827476 C.3        1 UNL1     -0.0339
     25 C         5.350662   1.089446   -8.992226 C.3        1 UNL1     -0.0615
     26 C         5.361601   -1.348542   -8.324465 C.3        1 UNL1     -0.0615
     27 C         6.352934   8.930493   -2.223545 C.ar        1 UNL1     0.1347
     28 C         5.39301   9.200749   -1.264609 C.ar        1 UNL1     0.0342
     29 C         4.689928   8.06685   -0.805138 C.ar        1 UNL1     0.1435
     30 C         4.908829   6.7847   -1.310504 C.ar        1 UNL1     0.0774
     31 O         3.648059   8.181211   0.047174 O.3        1 UNL1     -0.4436
     32 C         2.925466   6.949043   -0.095982 C.3        1 UNL1     0.3143
     33 C         3.938502   5.955123   -0.627106 C.2        1 UNL1     0.2504
     34 C         4.946863   10.567184   -0.824259 C.3        1 UNL1     -0.0327
     35 O         2.562941   6.512482   1.219785 O.2        1 UNL1     -0.4528
     36 C         -0.681339   4.583189   0.819085 C.3        1 UNL1     0.0854
     37 C         -0.986723   3.322991   -0.078782 C.3        1 UNL1     0.0236
     38 C         -1.589281   2.06237   0.708301 C.3        1 UNL1     0.1131
     39 C         -0.865474   1.530629   2.010463 C.3        1 UNL1     0.0200
     40 C         0.795542   1.383624   2.053507 C.3        1 UNL1     0.0661
     41 C         1.75557   0.614107   0.885689 C.3        1 UNL1     0.0091
     42 C         3.464117   0.975242   0.32368 C.3        1 UNL1     0.0661
     43 C         7.508242   7.454307   -3.882999 C.2        1 UNL1     0.2131
     44 O         7.90973   8.352127   -4.600957 O.2        1 UNL1     -0.2851
     45 O         7.166629   9.964948   -2.680975 O.3        1 UNL1     -0.5056
     46 O         3.953288   4.751558   -0.496466 O.2        1 UNL1     -0.2836
     47 C         5.562476   1.314194   1.936073 C.3        1 UNL1     -0.0566
     48 O         3.91135   -0.436266   0.405796 O.3        1 UNL1     -0.3909
     49 C         0.922592   0.382405   -0.355261 C.3        1 UNL1     -0.0577
     50 O         1.39636   2.60091   2.44715 O.3        1 UNL1     -0.3910
     51 O         -0.807177   4.393448   2.210342 O.3        1 UNL1     -0.3753
     52 C         0.058902   3.161749   -1.230137 C.3        1 UNL1     -0.0564
     53 O         -2.191771   1.024027   -0.192353 O.3        1 UNL1     -0.4608
     54 C         -2.415608   -0.28581   0.142542 C.2        1 UNL1     0.3042
     55 O         -1.843672   -1.27923   -0.304496 O.2        1 UNL1     -0.2512
     56 C         -3.446556   -0.463164   1.220691 C.3        1 UNL1     0.0332
     57 C         -1.587349   2.200099   3.270971 C.3        1 UNL1     -0.0567
     58 C         1.851719   7.195211   -1.181338 C.3        1 UNL1     0.0210
     59 C         -1.151104   5.566298   2.946551 C.3        1 UNL1     0.0372
     60 C         0.64847   5.211134   0.590057 C.2        1 UNL1     -0.0208
     61 C         1.560799   5.645459   1.460552 C.2        1 UNL1     0.0882
     62 H         4.692974   2.728781   0.584323 H        1 UNL1     0.0365
     63 H         6.341056   3.603192   -0.246014 H        1 UNL1     0.0576
     64 H         8.346108   1.482732   -1.236059 H        1 UNL1     0.0615
     65 H         8.281777   4.6002   -1.423441 H        1 UNL1     0.0622
     66 H         -1.424981   5.330408   0.508109 H        1 UNL1     0.0645
     67 H         -1.851305   3.633191   -0.691019 H        1 UNL1     0.0362
     68 H         -2.536365   2.500036   1.059018 H        1 UNL1     0.0741
     69 H         -1.198107   0.5198   2.205367 H        1 UNL1     0.0359
     70 H         0.905739   0.723091   2.934763 H        1 UNL1     0.0600
     71 H         1.797772   -0.407147   1.312557 H        1 UNL1     0.0348
     72 H         3.357555   1.463424   1.303291 H        1 UNL1     0.0602
     73 H         0.767712   5.408402   -0.446339 H        1 UNL1     0.0628
     74 H         1.541857   5.434685   2.530343 H        1 UNL1     0.1022
     75 H         10.961788   2.244656   -3.418694 H        1 UNL1     0.0279
     76 H         10.806112   3.433006   -4.650314 H        1 UNL1     0.0279
     77 H         11.923424   3.653773   -3.243838 H        1 UNL1     0.0279
     78 H         9.076273   4.797512   -5.009887 H        1 UNL1     0.1553
     79 H         7.795971   3.326824   -4.657569 H        1 UNL1     0.1484
     80 H         4.04636   2.727108   -4.799896 H        1 UNL1     0.0317
     81 H         4.782903   4.254202   -5.264025 H        1 UNL1     0.0317
     82 H         6.69528   3.063134   -6.367598 H        1 UNL1     0.0428
     83 H         5.139775   2.588419   -7.013162 H        1 UNL1     0.0428
     84 H         6.913208   -0.050096   -4.185386 H        1 UNL1     0.0428
     85 H         7.824688   1.360135   -4.597182 H        1 UNL1     0.0428
     86 H         6.529904   1.433122   -2.465736 H        1 UNL1     0.0317
     87 H         5.034722   1.207255   -3.250444 H        1 UNL1     0.0317
     88 H         7.274561   0.875614   -7.370371 H        1 UNL1     0.0429
     89 H         6.908792   -0.611735   -6.492738 H        1 UNL1     0.0429
     90 H         4.369524   0.193616   -7.296675 H        1 UNL1     0.0308
     91 H         6.300154   1.043766   -9.533965 H        1 UNL1     0.0233
     92 H         4.530998   0.896146   -9.688211 H        1 UNL1     0.0233
     93 H         5.226839   2.12539   -8.654108 H        1 UNL1     0.0233
     94 H         4.666152   -1.477414   -9.160874 H        1 UNL1     0.0233
     95 H         6.366161   -1.59366   -8.680471 H        1 UNL1     0.0233
     96 H         5.085719   -2.052227   -7.534096 H        1 UNL1     0.0233
     97 H         4.152646   10.51802   -0.085319 H        1 UNL1     0.0280
     98 H         5.759585   11.13646   -0.354511 H        1 UNL1     0.0280
     99 H         4.574663   11.132142   -1.694538 H        1 UNL1     0.0280
     100 H         6.700618   10.715743   -3.004647 H        1 UNL1     0.2922
     101 H         4.698712   0.881257   2.440191 H        1 UNL1     0.0236
     102 H         6.01331   2.119079   2.515636 H        1 UNL1     0.0236
     103 H         6.318021   0.510861   1.935738 H        1 UNL1     0.0236
     104 H         4.329787   -0.562719   1.279804 H        1 UNL1     0.2098
     105 H         0.711381   1.281485   -0.92872 H        1 UNL1     0.0234
     106 H         1.292029   -0.40587   -1.011056 H        1 UNL1     0.0234
     107 H         0.0   -0.0   0.0 H        1 UNL1     0.0234
     108 H         1.199171   3.259411   1.75342 H        1 UNL1     0.2098
     109 H         1.083208   3.047333   -0.848799 H        1 UNL1     0.0234
     110 H         -0.173499   2.334926   -1.909915 H        1 UNL1     0.0234
     111 H         0.081604   4.044614   -1.882809 H        1 UNL1     0.0234
     112 H         -3.573082   -1.527028   1.443244 H        1 UNL1     0.0342
     113 H         -3.198546   0.097476   2.120701 H        1 UNL1     0.0342
     114 H         -4.405652   -0.081419   0.844432 H        1 UNL1     0.0342
     115 H         -2.65321   1.937615   3.318188 H        1 UNL1     0.0234
     116 H         -1.140856   1.93423   4.231183 H        1 UNL1     0.0234
     117 H         -1.641312   3.30089   3.213621 H        1 UNL1     0.0234
     118 H         0.950608   7.682862   -0.769997 H        1 UNL1     0.0309
     119 H         2.222557   7.782961   -2.027052 H        1 UNL1     0.0309
     120 H         1.462811   6.263638   -1.606813 H        1 UNL1     0.0309
     121 H         -0.346087   6.288164   2.811592 H        1 UNL1     0.0524
     122 H         -2.080443   6.033001   2.579734 H        1 UNL1     0.0524
     123 H         -1.268185   5.327993   3.999925 H        1 UNL1     0.0524
@<TRIPOS>BOND
     1     1     2    1
     2     1    42    1
     3     2     3    2
     4     3     4    1
     5     4     5    2
     6     5     7    1
     7     6    75    1
     8     6    76    1
     9     6    77    1
    10     7     9   am
    11     9    10    1
    12    10    11    2
    13    10    43    1
    14    11    14    1
    15    11    15    1
    16    12    13   ar
    17    12    27   ar
    18    12    43    1
    19    13    14    1
    20    13    30   ar
    21    14    17    2
    22    15    16    1
    23    16    17    1
    24    16    18    1
    25    16    22    1
    26    18    19    1
    27    19    20    1
    28    20    21    1
    29    21    22    1
    30    23    24    1
    31    23    88    1
    32    23    89    1
    33    24    25    1
    34    24    26    1
    35    24    90    1
    36    25    91    1
    37    25    92    1
    38    25    93    1
    39    26    94    1
    40    26    95    1
    41    26    96    1
    42    27    28   ar
    43    28    29   ar
    44    29    30   ar
    45    29    31    1
    46    30    33    1
    47    31    32    1
    48    32    33    1
    49    32    35    1
    50    34    97    1
    51    34    98    1
    52    34    99    1
    53    35    61    1
    54    36    37    1
    55    36    60    1
    56    37    38    1
    57    38    39    1
    58    39    40    1
    59    40    41    1
    60    41    42    1
    61    45   100    1
    62    47   101    1
    63    47   102    1
    64    47   103    1
    65    48   104    1
    66    49   105    1
    67    49   106    1
    68    49   107    1
    69    50   108    1
    70    51    59    1
    71    52   109    1
    72    52   110    1
    73    52   111    1
    74    53    54    1
    75    54    55    2
    76    54    56    1
    77    56   112    1
    78    56   113    1
    79    56   114    1
    80    57   115    1
    81    57   116    1
    82    57   117    1
    83    58   118    1
    84    58   119    1
    85    58   120    1
    86    59   121    1
    87    59   122    1
    88    59   123    1
    89    60    61    2
    90     1    47    1
    91     1    62    1
    92     2    63    1
    93     3    64    1
    94     4    65    1
    95     5     6    1
    96     7     8    2
    97     9    78    1
    98    15    79    1
    99    18    80    1
   100    18    81    1
   101    19    82    1
   102    19    83    1
   103    20    23    1
   104    21    84    1
   105    21    85    1
   106    22    86    1
   107    22    87    1
   108    27    45    1
   109    28    34    1
   110    32    58    1
   111    33    46    2
   112    36    51    1
   113    36    66    1
   114    37    52    1
   115    37    67    1
   116    38    53    1
   117    38    68    1
   118    42    48    1
   119    42    72    1
   120    43    44    2
   121    60    73    1
   122    61    74    1
   123    39    69    1
   124    39    57    1
   125    40    70    1
   126    40    50    1
   127    41    71    1
   128    41    49    1
