@<TRIPOS>MOLECULE
*****
 123 128 0 0 0
SMALL
GASTEIGER

@<TRIPOS>ATOM
     1 C         3.440545   0.615921   -2.197409 C.3        1 UNL1     0.0009
     2 C         3.955043   2.147517   -3.106554 C.2        1 UNL1     -0.0787
     3 C         4.014716   2.923041   -4.327638 C.2        1 UNL1     -0.0649
     4 C         4.587098   4.503525   -4.529642 C.2        1 UNL1     -0.0542
     5 C         4.562492   5.649787   -5.361842 C.2        1 UNL1     0.0115
     6 C         4.116102   6.185427   -6.75006 C.3        1 UNL1     -0.0348
     7 C         5.027658   7.060999   -4.754315 C.2        1 UNL1     0.2441
     8 O         6.124177   7.553917   -4.9806 O.2        1 UNL1     -0.2702
     9 N         3.999912   7.814027   -4.160314 N.am        1 UNL1     -0.2772
     10 C         3.860401   7.474085   -2.834306 C.2        1 UNL1     0.1049
     11 C         3.131576   6.402029   -2.581853 C.2        1 UNL1     0.0801
     12 C         5.16343   7.131873   -0.72662 C.ar        1 UNL1     0.0753
     13 C         4.492188   5.873251   -0.608665 C.ar        1 UNL1     0.0305
     14 C         3.358349   5.527742   -1.463115 C.2        1 UNL1     0.0924
     15 N         2.322949   5.696952   -3.391492 N.pl3        1 UNL1     -0.3170
     16 C         1.630343   4.727438   -2.584899 C.3        1 UNL1     0.1275
     17 N         2.563378   4.462019   -1.428732 N.2        1 UNL1     -0.2557
     18 C         0.40844   5.422538   -1.992033 C.3        1 UNL1     0.0016
     19 C         -0.420342   6.001596   -3.127551 C.3        1 UNL1     0.0026
     20 N         -0.814272   4.918936   -4.018447 N.3        1 UNL1     -0.3018
     21 C         0.293196   4.150666   -4.590849 C.3        1 UNL1     0.0026
     22 C         1.109657   3.57437   -3.43276 C.3        1 UNL1     0.0016
     23 C         -1.846067   5.309295   -4.958481 C.3        1 UNL1     0.0012
     24 C         -2.472876   6.649914   -4.544227 C.3        1 UNL1     -0.0339
     25 C         -3.405036   7.196691   -5.637923 C.3        1 UNL1     -0.0615
     26 C         -3.196335   6.498652   -3.217386 C.3        1 UNL1     -0.0615
     27 C         6.163299   7.503341   0.169143 C.ar        1 UNL1     0.1347
     28 C         6.548902   6.720123   1.242424 C.ar        1 UNL1     0.0342
     29 C         5.908692   5.464441   1.309937 C.ar        1 UNL1     0.1435
     30 C         4.930928   5.063643   0.398586 C.ar        1 UNL1     0.0774
     31 O         6.095504   4.633614   2.358666 O.3        1 UNL1     -0.4436
     32 C         4.974295   3.738096   2.316098 C.3        1 UNL1     0.3143
     33 C         4.498137   3.767578   0.877829 C.2        1 UNL1     0.2504
     34 C         7.427594   7.156343   2.381595 C.3        1 UNL1     -0.0327
     35 O         5.473869   2.418011   2.56319 O.2        1 UNL1     -0.4528
     36 C         2.648911   0.537652   4.263763 C.3        1 UNL1     0.0854
     37 C         1.177196   0.28041   3.758389 C.3        1 UNL1     0.0236
     38 C         0.736706   -1.261005   3.71653 C.3        1 UNL1     0.1131
     39 C         1.660025   -2.32205   2.992695 C.3        1 UNL1     0.0200
     40 C         2.351235   -1.972352   1.515408 C.3        1 UNL1     0.0661
     41 C         1.538365   -1.360926   0.157833 C.3        1 UNL1     0.0091
     42 C         2.120606   -0.240947   -1.173349 C.3        1 UNL1     0.0661
     43 C         4.697685   8.066826   -1.780756 C.2        1 UNL1     0.2131
     44 O         4.890205   9.268723   -1.747328 O.2        1 UNL1     -0.2851
     45 O         6.798163   8.725352   -0.043166 O.3        1 UNL1     -0.5056
     46 O         3.913022   2.90632   0.259987 O.2        1 UNL1     -0.2836
     47 C         4.368103   -0.571063   -2.572489 C.3        1 UNL1     -0.0566
     48 O         1.57801   -1.077562   -2.270973 O.3        1 UNL1     -0.3909
     49 C         0.175773   -0.864662   0.587437 C.3        1 UNL1     -0.0577
     50 O         3.582557   -1.299429   1.684947 O.3        1 UNL1     -0.3910
     51 O         3.446662   -0.610084   4.447407 O.3        1 UNL1     -0.3753
     52 C         0.758788   1.295011   2.644626 C.3        1 UNL1     -0.0564
     53 O         -0.744428   -1.458771   3.577042 O.3        1 UNL1     -0.4608
     54 C         -1.692683   -0.477034   3.699242 C.2        1 UNL1     0.3042
     55 O         -1.559776   0.628793   4.222043 O.2        1 UNL1     -0.2512
     56 C         -3.004797   -0.824831   3.055731 C.3        1 UNL1     0.0332
     57 C         2.587054   -2.995589   4.108552 C.3        1 UNL1     -0.0567
     58 C         3.882105   4.361563   3.216063 C.3        1 UNL1     0.0210
     59 C         4.787132   -0.490446   3.973389 C.3        1 UNL1     0.0372
     60 C         3.442704   1.48371   3.433084 C.2        1 UNL1     -0.0208
     61 C         4.699625   1.403786   2.994329 C.2        1 UNL1     0.0882
     62 H         3.845481   1.050297   -1.275424 H        1 UNL1     0.0365
     63 H         4.505999   2.673386   -2.324008 H        1 UNL1     0.0576
     64 H         3.519013   2.58984   -5.242167 H        1 UNL1     0.0615
     65 H         5.127281   4.705777   -3.600783 H        1 UNL1     0.0622
     66 H         2.52396   1.026031   5.240451 H        1 UNL1     0.0645
     67 H         0.542118   0.668089   4.573828 H        1 UNL1     0.0362
     68 H         0.802507   -1.500303   4.788877 H        1 UNL1     0.0741
     69 H         1.072779   -3.204612   2.776746 H        1 UNL1     0.0359
     70 H         2.635491   -2.991914   1.191753 H        1 UNL1     0.0600
     71 H         1.273623   -2.30812   -0.351767 H        1 UNL1     0.0348
     72 H         3.026625   -0.655124   -0.707622 H        1 UNL1     0.0602
     73 H         2.891557   2.381882   3.303574 H        1 UNL1     0.0628
     74 H         5.311175   0.501845   3.036117 H        1 UNL1     0.1022
     75 H         3.545282   5.403641   -7.306846 H        1 UNL1     0.0279
     76 H         3.422999   7.023678   -6.746642 H        1 UNL1     0.0279
     77 H         4.962383   6.361533   -7.430131 H        1 UNL1     0.0279
     78 H         3.11622   7.61151   -4.623081 H        1 UNL1     0.1553
     79 H         1.952273   6.050946   -4.254175 H        1 UNL1     0.1484
     80 H         -0.167206   4.695727   -1.406249 H        1 UNL1     0.0317
     81 H         0.707607   6.216663   -1.299561 H        1 UNL1     0.0317
     82 H         0.127269   6.783958   -3.673395 H        1 UNL1     0.0428
     83 H         -1.285444   6.494094   -2.682475 H        1 UNL1     0.0428
     84 H         -0.030813   3.295159   -5.191629 H        1 UNL1     0.0428
     85 H         0.892388   4.753839   -5.286886 H        1 UNL1     0.0428
     86 H         1.826546   2.913974   -3.884354 H        1 UNL1     0.0317
     87 H         0.485717   2.900088   -2.833479 H        1 UNL1     0.0317
     88 H         -1.380638   5.431202   -5.945298 H        1 UNL1     0.0429
     89 H         -2.611019   4.528441   -5.05793 H        1 UNL1     0.0429
     90 H         -1.674515   7.380628   -4.368473 H        1 UNL1     0.0308
     91 H         -4.179024   6.469465   -5.900954 H        1 UNL1     0.0233
     92 H         -3.880721   8.124542   -5.311692 H        1 UNL1     0.0233
     93 H         -2.867291   7.437555   -6.562936 H        1 UNL1     0.0233
     94 H         -3.372802   5.439256   -3.002032 H        1 UNL1     0.0233
     95 H         -2.584664   6.909587   -2.409332 H        1 UNL1     0.0233
     96 H         -4.160577   7.014504   -3.227551 H        1 UNL1     0.0233
     97 H         8.32829   6.554206   2.45514 H        1 UNL1     0.0280
     98 H         7.768128   8.193811   2.267785 H        1 UNL1     0.0280
     99 H         6.873549   7.06666   3.330324 H        1 UNL1     0.0280
     100 H         7.005368   9.200577   0.742232 H        1 UNL1     0.2922
     101 H         4.30518   -1.343271   -1.806074 H        1 UNL1     0.0236
     102 H         5.396811   -0.2674   -2.763626 H        1 UNL1     0.0236
     103 H         4.045645   -1.071295   -3.500918 H        1 UNL1     0.0236
     104 H         0.873134   -0.564317   -2.712221 H        1 UNL1     0.2098
     105 H         -0.635846   -1.563672   0.40177 H        1 UNL1     0.0234
     106 H         0.128174   -0.493809   1.611219 H        1 UNL1     0.0234
     107 H         0.0   0.0   0.0 H        1 UNL1     0.0234
     108 H         4.261703   -1.977965   1.864164 H        1 UNL1     0.2098
     109 H         0.309374   2.207491   3.060701 H        1 UNL1     0.0234
     110 H         1.583563   1.564711   1.97623 H        1 UNL1     0.0234
     111 H         0.000647   0.869574   1.973678 H        1 UNL1     0.0234
     112 H         -3.830872   -0.49436   3.692704 H        1 UNL1     0.0342
     113 H         -3.092901   -0.407502   2.053774 H        1 UNL1     0.0342
     114 H         -3.064369   -1.918354   2.967274 H        1 UNL1     0.0342
     115 H         3.631329   -2.664004   4.026527 H        1 UNL1     0.0234
     116 H         2.260737   -2.802653   5.132437 H        1 UNL1     0.0234
     117 H         2.699741   -4.086665   3.986909 H        1 UNL1     0.0234
     118 H         3.185278   3.600991   3.609724 H        1 UNL1     0.0309
     119 H         4.291444   4.938718   4.05125 H        1 UNL1     0.0309
     120 H         3.22556   5.04582   2.667568 H        1 UNL1     0.0309
     121 H         5.365239   -1.304166   4.410435 H        1 UNL1     0.0524
     122 H         4.853412   -0.587712   2.876947 H        1 UNL1     0.0524
     123 H         5.205999   0.467494   4.268337 H        1 UNL1     0.0524
@<TRIPOS>BOND
     1     1     2    1
     2     1    42    1
     3     2     3    2
     4     3     4    1
     5     4     5    2
     6     5     7    1
     7     6    75    1
     8     6    76    1
     9     6    77    1
    10     7     9   am
    11     9    10    1
    12    10    11    2
    13    10    43    1
    14    11    14    1
    15    11    15    1
    16    12    13   ar
    17    12    27   ar
    18    12    43    1
    19    13    14    1
    20    13    30   ar
    21    14    17    2
    22    15    16    1
    23    16    17    1
    24    16    18    1
    25    16    22    1
    26    18    19    1
    27    19    20    1
    28    20    21    1
    29    21    22    1
    30    23    24    1
    31    23    88    1
    32    23    89    1
    33    24    25    1
    34    24    26    1
    35    24    90    1
    36    25    91    1
    37    25    92    1
    38    25    93    1
    39    26    94    1
    40    26    95    1
    41    26    96    1
    42    27    28   ar
    43    28    29   ar
    44    29    30   ar
    45    29    31    1
    46    30    33    1
    47    31    32    1
    48    32    33    1
    49    32    35    1
    50    34    97    1
    51    34    98    1
    52    34    99    1
    53    35    61    1
    54    36    37    1
    55    36    60    1
    56    37    38    1
    57    38    39    1
    58    39    40    1
    59    40    41    1
    60    41    42    1
    61    45   100    1
    62    47   101    1
    63    47   102    1
    64    47   103    1
    65    48   104    1
    66    49   105    1
    67    49   106    1
    68    49   107    1
    69    50   108    1
    70    51    59    1
    71    52   109    1
    72    52   110    1
    73    52   111    1
    74    53    54    1
    75    54    55    2
    76    54    56    1
    77    56   112    1
    78    56   113    1
    79    56   114    1
    80    57   115    1
    81    57   116    1
    82    57   117    1
    83    58   118    1
    84    58   119    1
    85    58   120    1
    86    59   121    1
    87    59   122    1
    88    59   123    1
    89    60    61    2
    90     1    47    1
    91     1    62    1
    92     2    63    1
    93     3    64    1
    94     4    65    1
    95     5     6    1
    96     7     8    2
    97     9    78    1
    98    15    79    1
    99    18    80    1
   100    18    81    1
   101    19    82    1
   102    19    83    1
   103    20    23    1
   104    21    84    1
   105    21    85    1
   106    22    86    1
   107    22    87    1
   108    27    45    1
   109    28    34    1
   110    32    58    1
   111    33    46    2
   112    36    51    1
   113    36    66    1
   114    37    52    1
   115    37    67    1
   116    38    53    1
   117    38    68    1
   118    42    48    1
   119    42    72    1
   120    43    44    2
   121    60    73    1
   122    61    74    1
   123    39    69    1
   124    39    57    1
   125    40    70    1
   126    40    50    1
   127    41    71    1
   128    41    49    1
