@<TRIPOS>MOLECULE
*****
 123 128 0 0 0
SMALL
GASTEIGER

@<TRIPOS>ATOM
     1 C         5.164364   1.757539   0.489564 C.3        1 UNL1     0.0009
     2 C         6.602044   2.558945   -0.363584 C.2        1 UNL1     -0.0787
     3 C         7.885428   2.457256   -1.025876 C.2        1 UNL1     -0.0649
     4 C         8.76324   3.687782   -1.788509 C.2        1 UNL1     -0.0542
     5 C         9.78496   3.974678   -2.727049 C.2        1 UNL1     0.0115
     6 C         10.915615   3.344145   -3.585751 C.3        1 UNL1     -0.0348
     7 C         9.880101   5.453612   -3.344049 C.2        1 UNL1     0.2441
     8 O         10.70236   6.278802   -2.970581 O.2        1 UNL1     -0.2702
     9 N         9.132155   5.651359   -4.517772 N.am        1 UNL1     -0.2772
     10 C         7.848392   6.038993   -4.209529 C.2        1 UNL1     0.1049
     11 C         7.002961   5.068855   -3.912373 C.2        1 UNL1     0.0801
     12 C         6.545407   7.65447   -2.813178 C.ar        1 UNL1     0.0753
     13 C         5.786531   6.529046   -2.359157 C.ar        1 UNL1     0.0305
     14 C         5.906135   5.218838   -2.994847 C.2        1 UNL1     0.0924
     15 N         7.127247   3.738888   -4.061599 N.pl3        1 UNL1     -0.3170
     16 C         5.857324   3.140714   -3.745785 C.3        1 UNL1     0.1275
     17 N         5.217894   4.102353   -2.774136 N.2        1 UNL1     -0.2557
     18 C         5.007098   3.189791   -5.011648 C.3        1 UNL1     0.0016
     19 C         5.765052   2.498333   -6.133691 C.3        1 UNL1     0.0026
     20 N         6.035754   1.123329   -5.737317 N.3        1 UNL1     -0.3018
     21 C         6.796643   0.972664   -4.495255 C.3        1 UNL1     0.0026
     22 C         6.014833   1.67047   -3.380924 C.3        1 UNL1     0.0016
     23 C         6.48343   0.29625   -6.840118 C.3        1 UNL1     0.0012
     24 C         5.330319   0.038516   -7.8228 C.3        1 UNL1     -0.0339
     25 C         5.357339   1.03328   -8.994879 C.3        1 UNL1     -0.0615
     26 C         5.372201   -1.399701   -8.309173 C.3        1 UNL1     -0.0615
     27 C         6.338336   8.92582   -2.283169 C.ar        1 UNL1     0.1347
     28 C         5.376977   9.201321   -1.327167 C.ar        1 UNL1     0.0342
     29 C         4.675576   8.069515   -0.860032 C.ar        1 UNL1     0.1435
     30 C         4.897371   6.784094   -1.355733 C.ar        1 UNL1     0.0774
     31 O         3.632667   8.188187   -0.009583 O.3        1 UNL1     -0.4436
     32 C         2.912525   6.953641   -0.144352 C.3        1 UNL1     0.3143
     33 C         3.927938   5.957746   -0.667173 C.2        1 UNL1     0.2504
     34 C         4.927842   10.570119   -0.897319 C.3        1 UNL1     -0.0327
     35 O         2.549542   6.526097   1.174246 O.2        1 UNL1     -0.4528
     36 C         -0.690725   4.587805   0.784659 C.3        1 UNL1     0.0854
     37 C         -0.992874   3.320459   -0.104196 C.3        1 UNL1     0.0236
     38 C         -1.593832   2.064534   0.691573 C.3        1 UNL1     0.1131
     39 C         -0.870294   1.543758   1.998307 C.3        1 UNL1     0.0200
     40 C         0.790952   1.4002   2.044022 C.3        1 UNL1     0.0661
     41 C         1.753555   0.623913   0.882822 C.3        1 UNL1     0.0091
     42 C         3.461966   0.984115   0.319805 C.3        1 UNL1     0.0661
     43 C         7.498021   7.439633   -3.9306 C.2        1 UNL1     0.2131
     44 O         7.898522   8.332897   -4.654765 O.2        1 UNL1     -0.2851
     45 O         7.150535   9.958408   -2.747424 O.3        1 UNL1     -0.5056
     46 O         3.944853   4.755205   -0.527659 O.2        1 UNL1     -0.2836
     47 C         5.55812   1.338878   1.931666 C.3        1 UNL1     -0.0566
     48 O         3.911765   -0.425906   0.412741 O.3        1 UNL1     -0.3909
     49 C         0.922218   0.381514   -0.357184 C.3        1 UNL1     -0.0577
     50 O         1.389105   2.62148   2.429266 O.3        1 UNL1     -0.3910
     51 O         -0.817558   4.408076   2.177154 O.3        1 UNL1     -0.3753
     52 C         0.054169   3.152712   -1.253331 C.3        1 UNL1     -0.0564
     53 O         -2.193499   1.018457   -0.201987 O.3        1 UNL1     -0.4608
     54 C         -2.415205   -0.289298   0.142331 C.2        1 UNL1     0.3042
     55 O         -1.841102   -1.284919   -0.296968 O.2        1 UNL1     -0.2512
     56 C         -3.446676   -0.460633   1.220952 C.3        1 UNL1     0.0332
     57 C         -1.594646   2.22113   3.25316 C.3        1 UNL1     -0.0567
     58 C         1.839373   7.18979   -1.23252 C.3        1 UNL1     0.0210
     59 C         -1.164397   5.585665   2.904377 C.3        1 UNL1     0.0372
     60 C         0.638126   5.216548   0.552286 C.2        1 UNL1     -0.0208
     61 C         1.548793   5.658986   1.420432 C.2        1 UNL1     0.0882
     62 H         4.68728   2.741835   0.568704 H        1 UNL1     0.0365
     63 H         6.334526   3.613209   -0.266472 H        1 UNL1     0.0576
     64 H         8.34451   1.489295   -1.238956 H        1 UNL1     0.0615
     65 H         8.274517   4.605172   -1.449351 H        1 UNL1     0.0622
     66 H         -1.435464   5.331313   0.467477 H        1 UNL1     0.0645
     67 H         -1.857441   3.624514   -0.719527 H        1 UNL1     0.0362
     68 H         -2.542075   2.502988   1.03815 H        1 UNL1     0.0741
     69 H         -1.20122   0.533767   2.200332 H        1 UNL1     0.0359
     70 H         0.901531   0.746381   2.930224 H        1 UNL1     0.0600
     71 H         1.797256   -0.394089   1.31724 H        1 UNL1     0.0348
     72 H         3.353538   1.479295   1.295692 H        1 UNL1     0.0602
     73 H         0.758004   5.406404   -0.48542 H        1 UNL1     0.0628
     74 H         1.529208   5.456058   2.491727 H        1 UNL1     0.1022
     75 H         10.960875   2.240049   -3.424638 H        1 UNL1     0.0279
     76 H         10.804168   3.419005   -4.665124 H        1 UNL1     0.0279
     77 H         11.919698   3.652223   -3.259243 H        1 UNL1     0.0279
     78 H         9.072123   4.777569   -5.036391 H        1 UNL1     0.1553
     79 H         7.794239   3.307108   -4.674478 H        1 UNL1     0.1484
     80 H         4.0459   2.699306   -4.815974 H        1 UNL1     0.0317
     81 H         4.780028   4.224324   -5.29063 H        1 UNL1     0.0317
     82 H         6.695705   3.028764   -6.383571 H        1 UNL1     0.0428
     83 H         5.14172   2.546383   -7.02711 H        1 UNL1     0.0428
     84 H         6.91735   -0.067899   -4.178285 H        1 UNL1     0.0428
     85 H         7.826584   1.340975   -4.599581 H        1 UNL1     0.0428
     86 H         6.529597   1.427215   -2.469972 H        1 UNL1     0.0317
     87 H         5.035603   1.192764   -3.254426 H        1 UNL1     0.0317
     88 H         7.28006   0.835016   -7.369653 H        1 UNL1     0.0429
     89 H         6.916228   -0.646517   -6.481441 H        1 UNL1     0.0429
     90 H         4.376237   0.148113   -7.293717 H        1 UNL1     0.0308
     91 H         6.30744   0.9854   -9.535358 H        1 UNL1     0.0233
     92 H         4.538715   0.833319   -9.690206 H        1 UNL1     0.0233
     93 H         5.231246   2.07145   -8.664518 H        1 UNL1     0.0233
     94 H         4.677807   -1.536035   -9.145275 H        1 UNL1     0.0233
     95 H         6.377563   -1.645543   -8.662402 H        1 UNL1     0.0233
     96 H         5.09687   -2.098066   -7.513907 H        1 UNL1     0.0233
     97 H         4.133001   10.524902   -0.158798 H        1 UNL1     0.0280
     98 H         5.739039   11.144367   -0.430998 H        1 UNL1     0.0280
     99 H         4.555429   11.127954   -1.772091 H        1 UNL1     0.0280
     100 H         6.683432   10.705921   -3.077063 H        1 UNL1     0.2922
     101 H         4.69468   0.908039   2.438132 H        1 UNL1     0.0236
     102 H         6.006881   2.148855   2.505717 H        1 UNL1     0.0236
     103 H         6.315169   0.536987   1.93797 H        1 UNL1     0.0236
     104 H         4.32959   -0.545133   1.288057 H        1 UNL1     0.2098
     105 H         0.709879   1.275949   -0.937451 H        1 UNL1     0.0234
     106 H         1.293769   -0.41087   -1.006802 H        1 UNL1     0.0234
     107 H         0.0   -0.0   0.0 H        1 UNL1     0.0234
     108 H         1.191355   3.274483   1.730517 H        1 UNL1     0.2098
     109 H         1.078317   3.043034   -0.87018 H        1 UNL1     0.0234
     110 H         -0.176022   2.320471   -1.927223 H        1 UNL1     0.0234
     111 H         0.07585   4.030789   -1.912464 H        1 UNL1     0.0234
     112 H         -3.571433   -1.523067   1.451202 H        1 UNL1     0.0342
     113 H         -3.2004   0.107044   2.117019 H        1 UNL1     0.0342
     114 H         -4.406172   -0.083416   0.841162 H        1 UNL1     0.0342
     115 H         -2.658646   1.952009   3.304796 H        1 UNL1     0.0234
     116 H         -1.144858   1.968009   4.215277 H        1 UNL1     0.0234
     117 H         -1.656086   3.320897   3.18475 H        1 UNL1     0.0234
     118 H         0.93695   7.67876   -0.825644 H        1 UNL1     0.0309
     119 H         2.209929   7.771995   -2.082184 H        1 UNL1     0.0309
     120 H         1.452626   6.25438   -1.651495 H        1 UNL1     0.0309
     121 H         -0.360605   6.308031   2.764876 H        1 UNL1     0.0524
     122 H         -2.094253   6.047905   2.533243 H        1 UNL1     0.0524
     123 H         -1.282054   5.354901   3.959365 H        1 UNL1     0.0524
@<TRIPOS>BOND
     1     1     2    1
     2     1    42    1
     3     2     3    2
     4     3     4    1
     5     4     5    2
     6     5     7    1
     7     6    75    1
     8     6    76    1
     9     6    77    1
    10     7     9   am
    11     9    10    1
    12    10    11    2
    13    10    43    1
    14    11    14    1
    15    11    15    1
    16    12    13   ar
    17    12    27   ar
    18    12    43    1
    19    13    14    1
    20    13    30   ar
    21    14    17    2
    22    15    16    1
    23    16    17    1
    24    16    18    1
    25    16    22    1
    26    18    19    1
    27    19    20    1
    28    20    21    1
    29    21    22    1
    30    23    24    1
    31    23    88    1
    32    23    89    1
    33    24    25    1
    34    24    26    1
    35    24    90    1
    36    25    91    1
    37    25    92    1
    38    25    93    1
    39    26    94    1
    40    26    95    1
    41    26    96    1
    42    27    28   ar
    43    28    29   ar
    44    29    30   ar
    45    29    31    1
    46    30    33    1
    47    31    32    1
    48    32    33    1
    49    32    35    1
    50    34    97    1
    51    34    98    1
    52    34    99    1
    53    35    61    1
    54    36    37    1
    55    36    60    1
    56    37    38    1
    57    38    39    1
    58    39    40    1
    59    40    41    1
    60    41    42    1
    61    45   100    1
    62    47   101    1
    63    47   102    1
    64    47   103    1
    65    48   104    1
    66    49   105    1
    67    49   106    1
    68    49   107    1
    69    50   108    1
    70    51    59    1
    71    52   109    1
    72    52   110    1
    73    52   111    1
    74    53    54    1
    75    54    55    2
    76    54    56    1
    77    56   112    1
    78    56   113    1
    79    56   114    1
    80    57   115    1
    81    57   116    1
    82    57   117    1
    83    58   118    1
    84    58   119    1
    85    58   120    1
    86    59   121    1
    87    59   122    1
    88    59   123    1
    89    60    61    2
    90     1    47    1
    91     1    62    1
    92     2    63    1
    93     3    64    1
    94     4    65    1
    95     5     6    1
    96     7     8    2
    97     9    78    1
    98    15    79    1
    99    18    80    1
   100    18    81    1
   101    19    82    1
   102    19    83    1
   103    20    23    1
   104    21    84    1
   105    21    85    1
   106    22    86    1
   107    22    87    1
   108    27    45    1
   109    28    34    1
   110    32    58    1
   111    33    46    2
   112    36    51    1
   113    36    66    1
   114    37    52    1
   115    37    67    1
   116    38    53    1
   117    38    68    1
   118    42    48    1
   119    42    72    1
   120    43    44    2
   121    60    73    1
   122    61    74    1
   123    39    69    1
   124    39    57    1
   125    40    70    1
   126    40    50    1
   127    41    71    1
   128    41    49    1
