@<TRIPOS>MOLECULE
*****
 123 128 0 0 0
SMALL
GASTEIGER

@<TRIPOS>ATOM
     1 C         3.755283   -1.201777   3.039666 C.3        1 UNL1     0.0009
     2 C         5.599786   -1.314932   2.891193 C.2        1 UNL1     -0.0787
     3 C         6.815611   -2.100705   2.910544 C.2        1 UNL1     -0.0649
     4 C         8.389253   -1.591982   2.548313 C.2        1 UNL1     -0.0542
     5 C         9.68819   -2.014081   2.171919 C.2        1 UNL1     0.0115
     6 C         10.601685   -3.257175   1.988705 C.3        1 UNL1     -0.0348
     7 C         10.706731   -0.937317   1.555363 C.2        1 UNL1     0.2441
     8 O         11.61622   -0.435558   2.201577 O.2        1 UNL1     -0.2702
     9 N         10.648157   -0.804467   0.157124 N.am        1 UNL1     -0.2772
     10 C         9.702175   0.129797   -0.197263 C.2        1 UNL1     0.1049
     11 C         8.453702   -0.297558   -0.251162 C.2        1 UNL1     0.0801
     12 C         8.925476   2.454445   0.302821 C.ar        1 UNL1     0.0753
     13 C         7.612136   1.90217   0.439709 C.ar        1 UNL1     0.0305
     14 C         7.313541   0.529549   0.03746 C.2        1 UNL1     0.0924
     15 N         7.967373   -1.550184   -0.220494 N.pl3        1 UNL1     -0.3170
     16 C         6.554671   -1.479644   -0.484219 C.3        1 UNL1     0.1275
     17 N         6.147741   -0.109574   0.000589 N.2        1 UNL1     -0.2557
     18 C         6.37788   -1.462439   -1.999525 C.3        1 UNL1     0.0016
     19 C         7.065133   -2.68658   -2.583265 C.3        1 UNL1     0.0026
     20 N         6.469107   -3.880429   -1.999736 N.3        1 UNL1     -0.3018
     21 C         6.535061   -3.957766   -0.538901 C.3        1 UNL1     0.0026
     22 C         5.834844   -2.720853   0.026464 C.3        1 UNL1     0.0016
     23 C         6.83793   -5.094704   -2.699841 C.3        1 UNL1     0.0012
     24 C         5.614111   -6.007203   -2.876951 C.3        1 UNL1     -0.0339
     25 C         5.212213   -6.128206   -4.356104 C.3        1 UNL1     -0.0615
     26 C         5.8849   -7.367559   -2.258175 C.3        1 UNL1     -0.0615
     27 C         9.175556   3.797532   0.574293 C.ar        1 UNL1     0.1347
     28 C         8.18883   4.691608   0.94986 C.ar        1 UNL1     0.0342
     29 C         6.913063   4.114777   1.125497 C.ar        1 UNL1     0.1435
     30 C         6.655044   2.763395   0.892235 C.ar        1 UNL1     0.0774
     31 O         5.825636   4.874051   1.382427 O.3        1 UNL1     -0.4436
     32 C         4.710625   4.042862   1.026411 C.3        1 UNL1     0.3143
     33 C         5.231181   2.622501   1.114791 C.2        1 UNL1     0.2504
     34 C         8.331463   6.186859   1.012946 C.3        1 UNL1     -0.0327
     35 O         3.723877   4.190304   2.054926 O.2        1 UNL1     -0.4528
     36 C         0.367884   3.668879   0.35978 C.3        1 UNL1     0.0854
     37 C         -0.149641   2.428109   -0.46495 C.3        1 UNL1     0.0236
     38 C         -1.528492   1.797182   0.057012 C.3        1 UNL1     0.1131
     39 C         -1.694607   1.430077   1.586688 C.3        1 UNL1     0.0200
     40 C         -0.464259   0.660733   2.409361 C.3        1 UNL1     0.0661
     41 C         0.358967   -0.729593   1.892732 C.3        1 UNL1     0.0091
     42 C         2.097006   -1.251964   2.1606 C.3        1 UNL1     0.0661
     43 C         9.99486   1.570622   -0.223993 C.2        1 UNL1     0.2131
     44 O         11.013373   1.984784   -0.747289 O.2        1 UNL1     -0.2851
     45 O         10.490264   4.244762   0.460428 O.3        1 UNL1     -0.5056
     46 O         4.613155   1.606123   1.340342 O.2        1 UNL1     -0.2836
     47 C         3.326368   -1.310603   4.527675 C.3        1 UNL1     -0.0566
     48 O         1.739532   -2.63398   2.562298 O.3        1 UNL1     -0.3909
     49 C         0.047076   -0.966867   0.431939 C.3        1 UNL1     -0.0577
     50 O         0.454009   1.600214   2.930784 O.3        1 UNL1     -0.3910
     51 O         -0.339972   3.960332   1.543599 O.3        1 UNL1     -0.3753
     52 C         1.029125   1.538966   -0.979621 C.3        1 UNL1     -0.0564
     53 O         -2.173468   0.865876   -0.927368 O.3        1 UNL1     -0.4608
     54 C         -3.522629   0.723028   -1.120465 C.2        1 UNL1     0.3042
     55 O         -4.406908   0.754259   -0.26553 O.2        1 UNL1     -0.2512
     56 C         -3.91066   0.569277   -2.563555 C.3        1 UNL1     0.0332
     57 C         -2.411681   2.666606   2.304306 C.3        1 UNL1     -0.0567
     58 C         4.380816   4.36233   -0.450306 C.3        1 UNL1     0.0210
     59 C         -1.386244   3.042463   1.857755 C.3        1 UNL1     0.0372
     60 C         1.810809   3.625568   0.722066 C.2        1 UNL1     -0.0208
     61 C         2.420998   3.899733   1.875864 C.2        1 UNL1     0.0882
     62 H         3.821711   -0.13134   2.810615 H        1 UNL1     0.0365
     63 H         5.859283   -0.261184   2.76976 H        1 UNL1     0.0576
     64 H         6.792876   -3.18806   3.011785 H        1 UNL1     0.0615
     65 H         8.316987   -0.500992   2.548527 H        1 UNL1     0.0622
     66 H         0.254415   4.52171   -0.324216 H        1 UNL1     0.0645
     67 H         -0.458259   2.859536   -1.433034 H        1 UNL1     0.0362
     68 H         -2.198419   2.654045   -0.111826 H        1 UNL1     0.0741
     69 H         -2.518937   0.737221   1.690795 H        1 UNL1     0.0359
     70 H         -1.022981   0.299727   3.293988 H        1 UNL1     0.0600
     71 H         -0.259226   -1.51118   2.37638 H        1 UNL1     0.0348
     72 H         1.884639   -0.49785   2.932304 H        1 UNL1     0.0602
     73 H         2.385348   3.447149   -0.152759 H        1 UNL1     0.0628
     74 H         1.907087   4.036676   2.827903 H        1 UNL1     0.1022
     75 H         10.111379   -4.169055   2.407165 H        1 UNL1     0.0279
     76 H         10.815715   -3.555252   0.964786 H        1 UNL1     0.0279
     77 H         11.517257   -3.205312   2.595945 H        1 UNL1     0.0279
     78 H         10.373632   -1.691651   -0.259549 H        1 UNL1     0.1553
     79 H         8.517204   -2.366113   -0.417669 H        1 UNL1     0.1484
     80 H         5.306656   -1.454378   -2.234426 H        1 UNL1     0.0317
     81 H         6.800581   -0.549447   -2.432446 H        1 UNL1     0.0317
     82 H         8.151664   -2.663193   -2.413508 H        1 UNL1     0.0428
     83 H         6.928385   -2.65353   -3.664587 H        1 UNL1     0.0428
     84 H         6.010953   -4.823086   -0.121357 H        1 UNL1     0.0428
     85 H         7.567754   -4.073535   -0.181888 H        1 UNL1     0.0428
     86 H         5.784962   -2.87632   1.088222 H        1 UNL1     0.0317
     87 H         4.781355   -2.714286   -0.278844 H        1 UNL1     0.0317
     88 H         7.212575   -4.81573   -3.693374 H        1 UNL1     0.0429
     89 H         7.652455   -5.620177   -2.184864 H        1 UNL1     0.0429
     90 H         4.769049   -5.587102   -2.318741 H        1 UNL1     0.0308
     91 H         5.924373   -6.744854   -4.912589 H        1 UNL1     0.0233
     92 H         4.213179   -6.560131   -4.450868 H        1 UNL1     0.0233
     93 H         5.173373   -5.1545   -4.859318 H        1 UNL1     0.0233
     94 H         6.96049   -7.574786   -2.257378 H        1 UNL1     0.0233
     95 H         5.538024   -7.382058   -1.221146 H        1 UNL1     0.0233
     96 H         5.379773   -8.16488   -2.810529 H        1 UNL1     0.0233
     97 H         8.955698   6.501923   1.843786 H        1 UNL1     0.0280
     98 H         8.803667   6.595978   0.110227 H        1 UNL1     0.0280
     99 H         7.337358   6.64765   1.133456 H        1 UNL1     0.0280
     100 H         10.577869   5.171005   0.318935 H        1 UNL1     0.2922
     101 H         2.285093   -1.00689   4.633318 H        1 UNL1     0.0236
     102 H         3.982525   -0.763773   5.204002 H        1 UNL1     0.0236
     103 H         3.352552   -2.351463   4.891155 H        1 UNL1     0.0236
     104 H         0.815085   -2.619368   2.878771 H        1 UNL1     0.2098
     105 H         0.805106   -1.533629   -0.102835 H        1 UNL1     0.0234
     106 H         -0.941722   -1.382848   0.239152 H        1 UNL1     0.0234
     107 H         -0.0   0.0   0.0 H        1 UNL1     0.0234
     108 H         0.372269   2.413328   2.396058 H        1 UNL1     0.2098
     109 H         0.733844   0.907922   -1.829505 H        1 UNL1     0.0234
     110 H         1.920519   2.11749   -1.245083 H        1 UNL1     0.0234
     111 H         1.382406   0.84657   -0.20391 H        1 UNL1     0.0234
     112 H         -4.994991   0.448062   -2.646486 H        1 UNL1     0.0342
     113 H         -3.563004   1.402694   -3.172156 H        1 UNL1     0.0342
     114 H         -3.439072   -0.344681   -2.950142 H        1 UNL1     0.0342
     115 H         -3.506051   2.603528   2.229704 H        1 UNL1     0.0234
     116 H         -2.160221   2.773174   3.361406 H        1 UNL1     0.0234
     117 H         -2.219768   3.634154   1.80937 H        1 UNL1     0.0234
     118 H         5.138945   5.019099   -0.91172 H        1 UNL1     0.0309
     119 H         4.260171   3.466148   -1.067156 H        1 UNL1     0.0309
     120 H         3.452104   4.932984   -0.559639 H        1 UNL1     0.0309
     121 H         -1.261869   2.744372   2.898442 H        1 UNL1     0.0524
     122 H         -2.385738   3.497998   1.7601 H        1 UNL1     0.0524
     123 H         -1.330353   2.172598   1.209445 H        1 UNL1     0.0524
@<TRIPOS>BOND
     1     1     2    1
     2     1    42    1
     3     2     3    2
     4     3     4    1
     5     4     5    2
     6     5     7    1
     7     6    75    1
     8     6    76    1
     9     6    77    1
    10     7     9   am
    11     9    10    1
    12    10    11    2
    13    10    43    1
    14    11    14    1
    15    11    15    1
    16    12    13   ar
    17    12    27   ar
    18    12    43    1
    19    13    14    1
    20    13    30   ar
    21    14    17    2
    22    15    16    1
    23    16    17    1
    24    16    18    1
    25    16    22    1
    26    18    19    1
    27    19    20    1
    28    20    21    1
    29    21    22    1
    30    23    24    1
    31    23    88    1
    32    23    89    1
    33    24    25    1
    34    24    26    1
    35    24    90    1
    36    25    91    1
    37    25    92    1
    38    25    93    1
    39    26    94    1
    40    26    95    1
    41    26    96    1
    42    27    28   ar
    43    28    29   ar
    44    29    30   ar
    45    29    31    1
    46    30    33    1
    47    31    32    1
    48    32    33    1
    49    32    35    1
    50    34    97    1
    51    34    98    1
    52    34    99    1
    53    35    61    1
    54    36    37    1
    55    36    60    1
    56    37    38    1
    57    38    39    1
    58    39    40    1
    59    40    41    1
    60    41    42    1
    61    45   100    1
    62    47   101    1
    63    47   102    1
    64    47   103    1
    65    48   104    1
    66    49   105    1
    67    49   106    1
    68    49   107    1
    69    50   108    1
    70    51    59    1
    71    52   109    1
    72    52   110    1
    73    52   111    1
    74    53    54    1
    75    54    55    2
    76    54    56    1
    77    56   112    1
    78    56   113    1
    79    56   114    1
    80    57   115    1
    81    57   116    1
    82    57   117    1
    83    58   118    1
    84    58   119    1
    85    58   120    1
    86    59   121    1
    87    59   122    1
    88    59   123    1
    89    60    61    2
    90     1    47    1
    91     1    62    1
    92     2    63    1
    93     3    64    1
    94     4    65    1
    95     5     6    1
    96     7     8    2
    97     9    78    1
    98    15    79    1
    99    18    80    1
   100    18    81    1
   101    19    82    1
   102    19    83    1
   103    20    23    1
   104    21    84    1
   105    21    85    1
   106    22    86    1
   107    22    87    1
   108    27    45    1
   109    28    34    1
   110    32    58    1
   111    33    46    2
   112    36    51    1
   113    36    66    1
   114    37    52    1
   115    37    67    1
   116    38    53    1
   117    38    68    1
   118    42    48    1
   119    42    72    1
   120    43    44    2
   121    60    73    1
   122    61    74    1
   123    39    69    1
   124    39    57    1
   125    40    70    1
   126    40    50    1
   127    41    71    1
   128    41    49    1
