@<TRIPOS>MOLECULE
*****
 123 128 0 0 0
SMALL
GASTEIGER

@<TRIPOS>ATOM
     1 C         5.088161   -1.546717   0.123366 C.3        1 UNL1     0.0009
     2 C         6.418514   -2.484705   -0.763976 C.2        1 UNL1     -0.0787
     3 C         7.117507   -3.724364   -1.029872 C.2        1 UNL1     -0.0649
     4 C         8.333039   -4.008952   -2.173484 C.2        1 UNL1     -0.0542
     5 C         9.012884   -5.0005   -2.922966 C.2        1 UNL1     0.0115
     6 C         9.215388   -6.531788   -3.088715 C.3        1 UNL1     -0.0348
     7 C         9.851505   -4.556706   -4.217859 C.2        1 UNL1     0.2441
     8 O         11.070462   -4.453411   -4.217949 O.2        1 UNL1     -0.2702
     9 N         9.120397   -4.547935   -5.418508 N.am        1 UNL1     -0.2772
     10 C         8.507975   -3.329037   -5.598917 C.2        1 UNL1     0.1049
     11 C         7.357485   -3.157474   -4.973488 C.2        1 UNL1     0.0801
     12 C         8.94174   -0.86581   -5.557784 C.ar        1 UNL1     0.0753
     13 C         7.797989   -0.75795   -4.704082 C.ar        1 UNL1     0.0305
     14 C         6.892458   -1.884941   -4.492047 C.2        1 UNL1     0.0924
     15 N         6.57111   -4.051978   -4.350587 N.pl3        1 UNL1     -0.3170
     16 C         5.349755   -3.384513   -3.985845 C.3        1 UNL1     0.1275
     17 N         5.744464   -1.937019   -3.822478 N.2        1 UNL1     -0.2557
     18 C         4.425989   -3.437239   -5.198932 C.3        1 UNL1     0.0016
     19 C         4.248447   -4.889557   -5.612259 C.3        1 UNL1     0.0026
     20 N         3.684428   -5.629227   -4.491634 N.3        1 UNL1     -0.3018
     21 C         4.472659   -5.585832   -3.258274 C.3        1 UNL1     0.0026
     22 C         4.634742   -4.118148   -2.858865 C.3        1 UNL1     0.0016
     23 C         3.199846   -6.941983   -4.869118 C.3        1 UNL1     0.0012
     24 C         3.692835   -7.313971   -6.276365 C.3        1 UNL1     -0.0339
     25 C         3.555525   -6.132641   -7.250871 C.3        1 UNL1     -0.0615
     26 C         5.123112   -7.820624   -6.210104 C.3        1 UNL1     -0.0615
     27 C         9.731046   0.243871   -5.85057 C.ar        1 UNL1     0.1347
     28 C         9.454197   1.51596   -5.38239 C.ar        1 UNL1     0.0342
     29 C         8.351869   1.588967   -4.50449 C.ar        1 UNL1     0.1435
     30 C         7.573495   0.479152   -4.173333 C.ar        1 UNL1     0.0774
     31 O         7.888832   2.77455   -4.051724 O.3        1 UNL1     -0.4436
     32 C         6.549487   2.497991   -3.615212 C.3        1 UNL1     0.3143
     33 C         6.526136   1.010631   -3.326377 C.2        1 UNL1     0.2504
     34 C         10.101661   2.788754   -5.852373 C.3        1 UNL1     -0.0327
     35 O         6.362419   3.169119   -2.363075 O.2        1 UNL1     -0.4528
     36 C         2.671522   4.038138   -2.189382 C.3        1 UNL1     0.0854
     37 C         1.418175   3.08517   -2.28156 C.3        1 UNL1     0.0236
     38 C         0.397628   3.189614   -1.048953 C.3        1 UNL1     0.1131
     39 C         0.942451   3.085417   0.432458 C.3        1 UNL1     0.0200
     40 C         2.077673   1.931777   0.835973 C.3        1 UNL1     0.0661
     41 C         1.985878   0.277447   0.472135 C.3        1 UNL1     0.0091
     42 C         3.312512   -0.936756   0.109982 C.3        1 UNL1     0.0661
     43 C         9.207883   -2.180319   -6.192995 C.2        1 UNL1     0.2131
     44 O         9.872387   -2.316983   -7.20418 O.2        1 UNL1     -0.2851
     45 O         10.85257   0.044174   -6.652907 O.3        1 UNL1     -0.5056
     46 O         5.817681   0.403965   -2.55443 O.2        1 UNL1     -0.2836
     47 C         5.492063   -1.307917   1.60317 C.3        1 UNL1     -0.0566
     48 O         2.777316   -1.967894   1.031631 O.3        1 UNL1     -0.3909
     49 C         0.899101   0.063873   -0.557815 C.3        1 UNL1     -0.0577
     50 O         3.385541   2.408494   0.591138 O.3        1 UNL1     -0.3910
     51 O         2.832562   4.72802   -0.970547 O.3        1 UNL1     -0.3753
     52 C         1.774612   1.718305   -2.952069 C.3        1 UNL1     -0.0564
     53 O         -0.934914   2.553358   -1.316975 O.3        1 UNL1     -0.4608
     54 C         -1.427785   1.442992   -0.682866 C.2        1 UNL1     0.3042
     55 O         -2.531306   1.312784   -0.154541 O.2        1 UNL1     -0.2512
     56 C         -0.493594   0.267031   -0.71626 C.3        1 UNL1     0.0332
     57 C         1.170664   4.575041   0.968287 C.3        1 UNL1     -0.0567
     58 C         5.627539   2.786197   -4.822886 C.3        1 UNL1     0.0210
     59 C         1.704729   5.503306   -0.567073 C.3        1 UNL1     0.0372
     60 C         3.977171   3.39097   -2.492061 C.2        1 UNL1     -0.0208
     61 C         5.149937   3.474517   -1.862471 C.2        1 UNL1     0.0882
     62 H         5.380569   -0.6462   -0.430059 H        1 UNL1     0.0365
     63 H         6.912832   -1.674741   -1.304417 H        1 UNL1     0.0576
     64 H         6.786946   -4.671817   -0.598398 H        1 UNL1     0.0615
     65 H         8.643309   -3.006044   -2.479083 H        1 UNL1     0.0622
     66 H         2.512274   4.781206   -2.983445 H        1 UNL1     0.0645
     67 H         0.815979   3.512841   -3.101936 H        1 UNL1     0.0362
     68 H         0.072434   4.234476   -1.167419 H        1 UNL1     0.0741
     69 H         0.117656   2.846854   1.090644 H        1 UNL1     0.0359
     70 H         1.980078   1.94563   1.9384 H        1 UNL1     0.0600
     71 H         1.490953   -0.09523   1.39035 H        1 UNL1     0.0348
     72 H         3.8024   -0.096262   0.622717 H        1 UNL1     0.0602
     73 H         3.910917   2.891088   -3.426394 H        1 UNL1     0.0628
     74 H         5.290075   3.917934   -0.876073 H        1 UNL1     0.1022
     75 H         8.351945   -7.090739   -2.653888 H        1 UNL1     0.0279
     76 H         9.249172   -6.909126   -4.108296 H        1 UNL1     0.0279
     77 H         10.049805   -6.91819   -2.485273 H        1 UNL1     0.0279
     78 H         8.389417   -5.255174   -5.379032 H        1 UNL1     0.1553
     79 H         6.624871   -5.042326   -4.503076 H        1 UNL1     0.1484
     80 H         3.466356   -2.974915   -4.937919 H        1 UNL1     0.0317
     81 H         4.838326   -2.855515   -6.030333 H        1 UNL1     0.0317
     82 H         5.196647   -5.337046   -5.9448 H        1 UNL1     0.0428
     83 H         3.58793   -4.903977   -6.479761 H        1 UNL1     0.0428
     84 H         3.988831   -6.08139   -2.41084 H        1 UNL1     0.0428
     85 H         5.429615   -6.114952   -3.365899 H        1 UNL1     0.0428
     86 H         5.097589   -4.131274   -1.889542 H        1 UNL1     0.0317
     87 H         3.651758   -3.671891   -2.664714 H        1 UNL1     0.0317
     88 H         3.600297   -7.672488   -4.154068 H        1 UNL1     0.0429
     89 H         2.105416   -6.99649   -4.805675 H        1 UNL1     0.0429
     90 H         3.095746   -8.151374   -6.656434 H        1 UNL1     0.0308
     91 H         2.95572   -5.326904   -6.81714 H        1 UNL1     0.0233
     92 H         4.538177   -5.741049   -7.52411 H        1 UNL1     0.0233
     93 H         3.069091   -6.420856   -8.190632 H        1 UNL1     0.0233
     94 H         5.805028   -7.085486   -6.651012 H        1 UNL1     0.0233
     95 H         5.418136   -7.971533   -5.167919 H        1 UNL1     0.0233
     96 H         5.237313   -8.76502   -6.749586 H        1 UNL1     0.0233
     97 H         9.930814   3.611095   -5.164044 H        1 UNL1     0.0280
     98 H         11.191693   2.69101   -5.939165 H        1 UNL1     0.0280
     99 H         9.691101   3.070348   -6.835857 H        1 UNL1     0.0280
     100 H         10.865512   -0.778318   -7.11003 H        1 UNL1     0.2922
     101 H         6.465936   -0.820549   1.644414 H        1 UNL1     0.0236
     102 H         5.462327   -2.214141   2.207205 H        1 UNL1     0.0236
     103 H         4.807433   -0.608688   2.111651 H        1 UNL1     0.0236
     104 H         2.128348   -2.501412   0.532463 H        1 UNL1     0.2098
     105 H         0.790792   0.876665   -1.271572 H        1 UNL1     0.0234
     106 H         0.946866   -0.892376   -1.078616 H        1 UNL1     0.0234
     107 H         0.0   -0.0   0.0 H        1 UNL1     0.0234
     108 H         3.9854   1.638413   0.621352 H        1 UNL1     0.2098
     109 H         1.024115   1.410434   -3.693474 H        1 UNL1     0.0234
     110 H         2.768644   1.71081   -3.412056 H        1 UNL1     0.0234
     111 H         1.815974   0.904809   -2.215551 H        1 UNL1     0.0234
     112 H         -0.985083   -0.611032   -0.286387 H        1 UNL1     0.0342
     113 H         -0.132544   0.059255   -1.722399 H        1 UNL1     0.0342
     114 H         0.378828   0.504067   -0.091874 H        1 UNL1     0.0342
     115 H         0.988483   4.652713   2.049012 H        1 UNL1     0.0234
     116 H         2.170722   4.968097   0.774794 H        1 UNL1     0.0234
     117 H         0.43769   5.300811   0.575924 H        1 UNL1     0.0234
     118 H         6.185778   2.805925   -5.775245 H        1 UNL1     0.0309
     119 H         4.797783   2.077439   -4.908735 H        1 UNL1     0.0309
     120 H         5.172477   3.78161   -4.77621 H        1 UNL1     0.0309
     121 H         0.950189   4.814873   -0.187485 H        1 UNL1     0.0524
     122 H         1.950168   6.207603   0.245185 H        1 UNL1     0.0524
     123 H         1.311339   6.062179   -1.411466 H        1 UNL1     0.0524
@<TRIPOS>BOND
     1     1     2    1
     2     1    42    1
     3     2     3    2
     4     3     4    1
     5     4     5    2
     6     5     7    1
     7     6    75    1
     8     6    76    1
     9     6    77    1
    10     7     9   am
    11     9    10    1
    12    10    11    2
    13    10    43    1
    14    11    14    1
    15    11    15    1
    16    12    13   ar
    17    12    27   ar
    18    12    43    1
    19    13    14    1
    20    13    30   ar
    21    14    17    2
    22    15    16    1
    23    16    17    1
    24    16    18    1
    25    16    22    1
    26    18    19    1
    27    19    20    1
    28    20    21    1
    29    21    22    1
    30    23    24    1
    31    23    88    1
    32    23    89    1
    33    24    25    1
    34    24    26    1
    35    24    90    1
    36    25    91    1
    37    25    92    1
    38    25    93    1
    39    26    94    1
    40    26    95    1
    41    26    96    1
    42    27    28   ar
    43    28    29   ar
    44    29    30   ar
    45    29    31    1
    46    30    33    1
    47    31    32    1
    48    32    33    1
    49    32    35    1
    50    34    97    1
    51    34    98    1
    52    34    99    1
    53    35    61    1
    54    36    37    1
    55    36    60    1
    56    37    38    1
    57    38    39    1
    58    39    40    1
    59    40    41    1
    60    41    42    1
    61    45   100    1
    62    47   101    1
    63    47   102    1
    64    47   103    1
    65    48   104    1
    66    49   105    1
    67    49   106    1
    68    49   107    1
    69    50   108    1
    70    51    59    1
    71    52   109    1
    72    52   110    1
    73    52   111    1
    74    53    54    1
    75    54    55    2
    76    54    56    1
    77    56   112    1
    78    56   113    1
    79    56   114    1
    80    57   115    1
    81    57   116    1
    82    57   117    1
    83    58   118    1
    84    58   119    1
    85    58   120    1
    86    59   121    1
    87    59   122    1
    88    59   123    1
    89    60    61    2
    90     1    47    1
    91     1    62    1
    92     2    63    1
    93     3    64    1
    94     4    65    1
    95     5     6    1
    96     7     8    2
    97     9    78    1
    98    15    79    1
    99    18    80    1
   100    18    81    1
   101    19    82    1
   102    19    83    1
   103    20    23    1
   104    21    84    1
   105    21    85    1
   106    22    86    1
   107    22    87    1
   108    27    45    1
   109    28    34    1
   110    32    58    1
   111    33    46    2
   112    36    51    1
   113    36    66    1
   114    37    52    1
   115    37    67    1
   116    38    53    1
   117    38    68    1
   118    42    48    1
   119    42    72    1
   120    43    44    2
   121    60    73    1
   122    61    74    1
   123    39    69    1
   124    39    57    1
   125    40    70    1
   126    40    50    1
   127    41    71    1
   128    41    49    1
