@<TRIPOS>MOLECULE
*****
 123 128 0 0 0
SMALL
GASTEIGER

@<TRIPOS>ATOM
     1 C         5.192902   1.657803   0.533594 C.3        1 UNL1     0.0009
     2 C         6.628885   2.498995   -0.283343 C.2        1 UNL1     -0.0787
     3 C         7.901575   2.427973   -0.96983 C.2        1 UNL1     -0.0649
     4 C         8.784582   3.69766   -1.658707 C.2        1 UNL1     -0.0542
     5 C         9.796854   4.036464   -2.590154 C.2        1 UNL1     0.0115
     6 C         10.907298   3.453283   -3.506744 C.3        1 UNL1     -0.0348
     7 C         9.902551   5.553231   -3.105166 C.2        1 UNL1     0.2441
     8 O         10.74048   6.340795   -2.687862 O.2        1 UNL1     -0.2702
     9 N         9.141074   5.840456   -4.251379 N.am        1 UNL1     -0.2772
     10 C         7.866806   6.22117   -3.898363 C.2        1 UNL1     0.1049
     11 C         7.013104   5.242985   -3.65635 C.2        1 UNL1     0.0801
     12 C         6.604212   7.751808   -2.375098 C.ar        1 UNL1     0.0753
     13 C         5.837212   6.606855   -1.988574 C.ar        1 UNL1     0.0305
     14 C         5.93109   5.342333   -2.714675 C.2        1 UNL1     0.0924
     15 N         7.11813   3.925108   -3.898624 N.pl3        1 UNL1     -0.3170
     16 C         5.845074   3.321749   -3.606152 C.3        1 UNL1     0.1275
     17 N         5.231604   4.221564   -2.561303 N.2        1 UNL1     -0.2557
     18 C         4.97814   3.468253   -4.853014 C.3        1 UNL1     0.0016
     19 C         5.711524   2.846926   -6.031017 C.3        1 UNL1     0.0026
     20 N         5.969898   1.444703   -5.734296 N.3        1 UNL1     -0.3018
     21 C         6.745869   1.19957   -4.516861 C.3        1 UNL1     0.0026
     22 C         5.98861   1.828048   -3.345764 C.3        1 UNL1     0.0016
     23 C         6.391574   0.690461   -6.897891 C.3        1 UNL1     0.0012
     24 C         5.221761   0.514969   -7.87896 C.3        1 UNL1     -0.0339
     25 C         5.245426   1.587894   -8.980017 C.3        1 UNL1     -0.0615
     26 C         5.23834   -0.88663   -8.46379 C.3        1 UNL1     -0.0615
     27 C         6.420921   8.985908   -1.755807 C.ar        1 UNL1     0.1347
     28 C         5.476503   9.206193   -0.769096 C.ar        1 UNL1     0.0342
     29 C         4.767066   8.053282   -0.370773 C.ar        1 UNL1     0.1435
     30 C         4.965371   6.802601   -0.957026 C.ar        1 UNL1     0.0774
     31 O         3.737628   8.125384   0.501044 O.3        1 UNL1     -0.4436
     32 C         2.999809   6.911769   0.292155 C.3        1 UNL1     0.3143
     33 C         3.994955   5.942306   -0.312857 C.2        1 UNL1     0.2504
     34 C         5.051064   10.547305   -0.239455 C.3        1 UNL1     -0.0327
     35 O         2.649592   6.398562   1.583363 O.2        1 UNL1     -0.4528
     36 C         -0.620511   4.53059   1.10881 C.3        1 UNL1     0.0854
     37 C         -0.951255   3.331337   0.139314 C.3        1 UNL1     0.0236
     38 C         -1.557328   2.030724   0.855432 C.3        1 UNL1     0.1131
     39 C         -0.822588   1.412369   2.112438 C.3        1 UNL1     0.0200
     40 C         0.837139   1.246188   2.123771 C.3        1 UNL1     0.0661
     41 C         1.773498   0.540503   0.897863 C.3        1 UNL1     0.0091
     42 C         3.478475   0.918312   0.335977 C.3        1 UNL1     0.0661
     43 C         7.538439   7.603288   -3.518523 C.2        1 UNL1     0.2131
     44 O         7.940398   8.53958   -4.185249 O.2        1 UNL1     -0.2851
     45 O         7.239894   10.038324   -2.159717 O.3        1 UNL1     -0.5056
     46 O         3.998265   4.732887   -0.256756 O.2        1 UNL1     -0.2836
     47 C         5.601109   1.135901   1.937506 C.3        1 UNL1     -0.0566
     48 O         3.911269   -0.500026   0.324973 O.3        1 UNL1     -0.3909
     49 C         0.922044   0.394236   -0.343557 C.3        1 UNL1     -0.0577
     50 O         1.45628   2.43073   2.583389 O.3        1 UNL1     -0.3910
     51 O         -0.7304   4.256669   2.487332 O.3        1 UNL1     -0.3753
     52 C         0.077554   3.230855   -1.033888 C.3        1 UNL1     -0.0564
     53 O         -2.182745   1.056069   -0.099151 O.3        1 UNL1     -0.4608
     54 C         -2.416542   -0.2696   0.157501 C.2        1 UNL1     0.3042
     55 O         -1.86134   -1.239288   -0.357567 O.2        1 UNL1     -0.2512
     56 C         -3.435328   -0.502685   1.236602 C.3        1 UNL1     0.0332
     57 C         -1.520722   2.010075   3.421457 C.3        1 UNL1     -0.0567
     58 C         1.914862   7.235276   -0.761297 C.3        1 UNL1     0.0210
     59 C         -1.05192   5.385289   3.29894 C.3        1 UNL1     0.0372
     60 C         0.713011   5.157979   0.900811 C.2        1 UNL1     -0.0208
     61 C         1.641226   5.528523   1.783908 C.2        1 UNL1     0.0882
     62 H         4.729709   2.639908   0.687328 H        1 UNL1     0.0365
     63 H         6.376372   3.547154   -0.109939 H        1 UNL1     0.0576
     64 H         8.345129   1.471627   -1.255782 H        1 UNL1     0.0615
     65 H         8.31248   4.595208   -1.250038 H        1 UNL1     0.0622
     66 H         -1.359898   5.303057   0.85455 H        1 UNL1     0.0645
     67 H         -1.820245   3.687447   -0.440861 H        1 UNL1     0.0362
     68 H         -2.49495   2.455482   1.245262 H        1 UNL1     0.0741
     69 H         -1.163706   0.394859   2.24926 H        1 UNL1     0.0359
     70 H         0.951501   0.531468   2.961122 H        1 UNL1     0.0600
     71 H         1.810048   -0.505514   1.260452 H        1 UNL1     0.0348
     72 H         3.389947   1.346187   1.345136 H        1 UNL1     0.0602
     73 H         0.82098   5.417589   -0.123002 H        1 UNL1     0.0628
     74 H         1.633828   5.252358   2.838856 H        1 UNL1     0.1022
     75 H         10.940518   2.340237   -3.422733 H        1 UNL1     0.0279
     76 H         10.781922   3.603816   -4.576646 H        1 UNL1     0.0279
     77 H         11.919692   3.72608   -3.174565 H        1 UNL1     0.0279
     78 H         9.062602   5.00534   -4.828007 H        1 UNL1     0.1553
     79 H         7.770957   3.52875   -4.549508 H        1 UNL1     0.1484
     80 H         4.013484   2.97693   -4.677498 H        1 UNL1     0.0317
     81 H         4.760616   4.522215   -5.056724 H        1 UNL1     0.0317
     82 H         6.645408   3.382204   -6.257405 H        1 UNL1     0.0428
     83 H         5.076578   2.963982   -6.909761 H        1 UNL1     0.0428
     84 H         6.857497   0.138239   -4.274112 H        1 UNL1     0.0428
     85 H         7.778941   1.561892   -4.610679 H        1 UNL1     0.0428
     86 H         6.512728   1.51635   -2.461381 H        1 UNL1     0.0317
     87 H         5.005134   1.354463   -3.238108 H        1 UNL1     0.0317
     88 H         7.187701   1.254961   -7.400699 H        1 UNL1     0.0429
     89 H         6.817076   -0.279918   -6.611384 H        1 UNL1     0.0429
     90 H         4.276576   0.599147   -7.329639 H        1 UNL1     0.0308
     91 H         6.188505   1.568159   -9.534377 H        1 UNL1     0.0233
     92 H         4.416561   1.444346   -9.677144 H        1 UNL1     0.0233
     93 H         5.134237   2.601985   -8.577409 H        1 UNL1     0.0233
     94 H         4.530756   -0.956615   -9.297014 H        1 UNL1     0.0233
     95 H         6.235467   -1.119473   -8.847828 H        1 UNL1     0.0233
     96 H         4.96503   -1.634904   -7.714553 H        1 UNL1     0.0233
     97 H         4.265987   10.460689   0.505785 H        1 UNL1     0.0280
     98 H         5.875976   11.078265   0.253352 H        1 UNL1     0.0280
     99 H         4.673834   11.168611   -1.068171 H        1 UNL1     0.0280
     100 H         6.777973   10.812333   -2.4302 H        1 UNL1     0.2922
     101 H         4.739259   0.681452   2.425714 H        1 UNL1     0.0236
     102 H         6.068183   1.898896   2.559328 H        1 UNL1     0.0236
     103 H         6.347755   0.326514   1.877456 H        1 UNL1     0.0236
     104 H         4.339575   -0.684383   1.183773 H        1 UNL1     0.2098
     105 H         0.713275   1.329072   -0.857668 H        1 UNL1     0.0234
     106 H         1.274318   -0.355779   -1.051588 H        1 UNL1     0.0234
     107 H         0.0   -0.0   0.0 H        1 UNL1     0.0234
     108 H         1.257343   3.132734   1.934249 H        1 UNL1     0.2098
     109 H         1.105397   3.082773   -0.674273 H        1 UNL1     0.0234
     110 H         -0.172655   2.449936   -1.760046 H        1 UNL1     0.0234
     111 H         0.101462   4.152026   -1.631231 H        1 UNL1     0.0234
     112 H         -3.570592   -1.576917   1.394952 H        1 UNL1     0.0342
     113 H         -3.169573   -0.001172   2.165958 H        1 UNL1     0.0342
     114 H         -4.394981   -0.08877   0.897624 H        1 UNL1     0.0342
     115 H         -2.587293   1.750743   3.470047 H        1 UNL1     0.0234
     116 H         -1.060987   1.685778   4.357152 H        1 UNL1     0.0234
     117 H         -1.568893   3.112595   3.429859 H        1 UNL1     0.0234
     118 H         1.024538   7.705716   -0.308511 H        1 UNL1     0.0309
     119 H         2.281129   7.870295   -1.574194 H        1 UNL1     0.0309
     120 H         1.510314   6.335707   -1.237977 H        1 UNL1     0.0309
     121 H         -0.24087   6.105922   3.197738 H        1 UNL1     0.0524
     122 H         -1.980769   5.883112   2.974209 H        1 UNL1     0.0524
     123 H         -1.157957   5.083652   4.337143 H        1 UNL1     0.0524
@<TRIPOS>BOND
     1     1     2    1
     2     1    42    1
     3     2     3    2
     4     3     4    1
     5     4     5    2
     6     5     7    1
     7     6    75    1
     8     6    76    1
     9     6    77    1
    10     7     9   am
    11     9    10    1
    12    10    11    2
    13    10    43    1
    14    11    14    1
    15    11    15    1
    16    12    13   ar
    17    12    27   ar
    18    12    43    1
    19    13    14    1
    20    13    30   ar
    21    14    17    2
    22    15    16    1
    23    16    17    1
    24    16    18    1
    25    16    22    1
    26    18    19    1
    27    19    20    1
    28    20    21    1
    29    21    22    1
    30    23    24    1
    31    23    88    1
    32    23    89    1
    33    24    25    1
    34    24    26    1
    35    24    90    1
    36    25    91    1
    37    25    92    1
    38    25    93    1
    39    26    94    1
    40    26    95    1
    41    26    96    1
    42    27    28   ar
    43    28    29   ar
    44    29    30   ar
    45    29    31    1
    46    30    33    1
    47    31    32    1
    48    32    33    1
    49    32    35    1
    50    34    97    1
    51    34    98    1
    52    34    99    1
    53    35    61    1
    54    36    37    1
    55    36    60    1
    56    37    38    1
    57    38    39    1
    58    39    40    1
    59    40    41    1
    60    41    42    1
    61    45   100    1
    62    47   101    1
    63    47   102    1
    64    47   103    1
    65    48   104    1
    66    49   105    1
    67    49   106    1
    68    49   107    1
    69    50   108    1
    70    51    59    1
    71    52   109    1
    72    52   110    1
    73    52   111    1
    74    53    54    1
    75    54    55    2
    76    54    56    1
    77    56   112    1
    78    56   113    1
    79    56   114    1
    80    57   115    1
    81    57   116    1
    82    57   117    1
    83    58   118    1
    84    58   119    1
    85    58   120    1
    86    59   121    1
    87    59   122    1
    88    59   123    1
    89    60    61    2
    90     1    47    1
    91     1    62    1
    92     2    63    1
    93     3    64    1
    94     4    65    1
    95     5     6    1
    96     7     8    2
    97     9    78    1
    98    15    79    1
    99    18    80    1
   100    18    81    1
   101    19    82    1
   102    19    83    1
   103    20    23    1
   104    21    84    1
   105    21    85    1
   106    22    86    1
   107    22    87    1
   108    27    45    1
   109    28    34    1
   110    32    58    1
   111    33    46    2
   112    36    51    1
   113    36    66    1
   114    37    52    1
   115    37    67    1
   116    38    53    1
   117    38    68    1
   118    42    48    1
   119    42    72    1
   120    43    44    2
   121    60    73    1
   122    61    74    1
   123    39    69    1
   124    39    57    1
   125    40    70    1
   126    40    50    1
   127    41    71    1
   128    41    49    1
