@<TRIPOS>MOLECULE
*****
 123 128 0 0 0
SMALL
GASTEIGER

@<TRIPOS>ATOM
     1 C         5.16062   1.771263   0.479478 C.3        1 UNL1     0.0009
     2 C         6.597187   2.569254   -0.378731 C.2        1 UNL1     -0.0787
     3 C         7.881133   2.465265   -1.039575 C.2        1 UNL1     -0.0649
     4 C         8.756938   3.691919   -1.810706 C.2        1 UNL1     -0.0542
     5 C         9.778606   3.973969   -2.750769 C.2        1 UNL1     0.0115
     6 C         10.910974   3.339415   -3.604237 C.3        1 UNL1     -0.0348
     7 C         9.871171   5.448542   -3.378506 C.2        1 UNL1     0.2441
     8 O         10.691597   6.27806   -3.010636 O.2        1 UNL1     -0.2702
     9 N         9.123483   5.636233   -4.554043 N.am        1 UNL1     -0.2772
     10 C         7.838789   6.023572   -4.249327 C.2        1 UNL1     0.1049
     11 C         6.995109   5.053963   -3.945545 C.2        1 UNL1     0.0801
     12 C         6.531855   7.646629   -2.865513 C.ar        1 UNL1     0.0753
     13 C         5.774949   6.523055   -2.40369 C.ar        1 UNL1     0.0305
     14 C         5.897485   5.208477   -3.029727 C.2        1 UNL1     0.0924
     15 N         7.122098   3.72319   -4.084984 N.pl3        1 UNL1     -0.3170
     16 C         5.853183   3.124831   -3.76549 C.3        1 UNL1     0.1275
     17 N         5.211324   4.092277   -2.801235 N.2        1 UNL1     -0.2557
     18 C         5.003558   3.162982   -5.032133 C.3        1 UNL1     0.0016
     19 C         5.763491   2.464845   -6.148688 C.3        1 UNL1     0.0026
     20 N         6.036684   1.09331   -5.742136 N.3        1 UNL1     -0.3018
     21 C         6.797184   0.953224   -4.498599 C.3        1 UNL1     0.0026
     22 C         6.013388   1.657606   -3.389814 C.3        1 UNL1     0.0016
     23 C         6.486596   0.259084   -6.838625 C.3        1 UNL1     0.0012
     24 C         5.334536   -0.008097   -7.820016 C.3        1 UNL1     -0.0339
     25 C         5.370451   0.967   -9.008272 C.3        1 UNL1     -0.0615
     26 C         5.369205   -1.454371   -8.282479 C.3        1 UNL1     -0.0615
     27 C         6.321988   8.921405   -2.344916 C.ar        1 UNL1     0.1347
     28 C         5.359562   9.201983   -1.391468 C.ar        1 UNL1     0.0342
     29 C         4.660136   8.072236   -0.916454 C.ar        1 UNL1     0.1435
     30 C         4.884736   6.783669   -1.402632 C.ar        1 UNL1     0.0774
     31 O         3.616527   8.195057   -0.067453 O.3        1 UNL1     -0.4436
     32 C         2.898893   6.958139   -0.193586 C.3        1 UNL1     0.3143
     33 C         3.916555   5.960459   -0.708573 C.2        1 UNL1     0.2504
     34 C         4.907493   10.572994   -0.971872 C.3        1 UNL1     -0.0327
     35 O         2.536029   6.539522   1.127906 O.2        1 UNL1     -0.4528
     36 C         -0.700197   4.59204   0.750753 C.3        1 UNL1     0.0854
     37 C         -0.999359   3.317642   -0.128981 C.3        1 UNL1     0.0236
     38 C         -1.598278   2.066379   0.675618 C.3        1 UNL1     0.1131
     39 C         -0.874434   1.556591   1.98651 C.3        1 UNL1     0.0200
     40 C         0.787066   1.416651   2.034163 C.3        1 UNL1     0.0661
     41 C         1.751836   0.633807   0.87918 C.3        1 UNL1     0.0091
     42 C         3.459843   0.99326   0.314462 C.3        1 UNL1     0.0661
     43 C         7.485505   7.425517   -3.980825 C.2        1 UNL1     0.2131
     44 O         7.884643   8.314257   -4.711282 O.2        1 UNL1     -0.2851
     45 O         7.132404   9.952177   -2.816268 O.3        1 UNL1     -0.5056
     46 O         3.935763   4.759006   -0.560269 O.2        1 UNL1     -0.2836
     47 C         5.554406   1.363925   1.924812 C.3        1 UNL1     -0.0566
     48 O         3.912369   -0.415154   0.417937 O.3        1 UNL1     -0.3909
     49 C         0.921661   0.380716   -0.359467 C.3        1 UNL1     -0.0577
     50 O         1.382599   2.641891   2.410794 O.3        1 UNL1     -0.3910
     51 O         -0.827442   4.422237   2.144456 O.3        1 UNL1     -0.3753
     52 C         0.048645   3.143574   -1.276299 C.3        1 UNL1     -0.0564
     53 O         -2.19539   1.012621   -0.210596 O.3        1 UNL1     -0.4608
     54 C         -2.426832   -0.289754   0.147433 C.2        1 UNL1     0.3042
     55 O         -1.853607   -1.293429   -0.274333 O.2        1 UNL1     -0.2512
     56 C         -3.469214   -0.442931   1.218269 C.3        1 UNL1     0.0332
     57 C         -1.60081   2.241679   3.235993 C.3        1 UNL1     -0.0567
     58 C         1.825877   7.184214   -1.284024 C.3        1 UNL1     0.0210
     59 C         -1.177002   5.604419   2.862871 C.3        1 UNL1     0.0372
     60 C         0.62754   5.221693   0.514505 C.2        1 UNL1     -0.0208
     61 C         1.536856   5.672258   1.379883 C.2        1 UNL1     0.0882
     62 H         4.681554   2.755168   0.55117 H        1 UNL1     0.0365
     63 H         6.327538   3.623669   -0.289467 H        1 UNL1     0.0576
     64 H         8.342239   1.496682   -1.245332 H        1 UNL1     0.0615
     65 H         8.26622   4.610795   -1.478521 H        1 UNL1     0.0622
     66 H         -1.446226   5.331741   0.427749 H        1 UNL1     0.0645
     67 H         -1.864185   3.615487   -0.746981 H        1 UNL1     0.0362
     68 H         -2.547574   2.505479   1.018476 H        1 UNL1     0.0741
     69 H         -1.20348   0.547451   2.19573 H        1 UNL1     0.0359
     70 H         0.898446   0.769542   2.925176 H        1 UNL1     0.0600
     71 H         1.797305   -0.380907   1.321047 H        1 UNL1     0.0348
     72 H         3.349903   1.495339   1.286647 H        1 UNL1     0.0602
     73 H         0.747614   5.404201   -0.524495 H        1 UNL1     0.0628
     74 H         1.517081   5.477122   2.452622 H        1 UNL1     0.1022
     75 H         10.958321   2.236617   -3.435038 H        1 UNL1     0.0279
     76 H         10.799973   3.406169   -4.684187 H        1 UNL1     0.0279
     77 H         11.914268   3.651852   -3.27945 H        1 UNL1     0.0279
     78 H         9.065459   4.758562   -5.066297 H        1 UNL1     0.1553
     79 H         7.790276   3.288263   -4.694336 H        1 UNL1     0.1484
     80 H         4.043221   2.672042   -4.833396 H        1 UNL1     0.0317
     81 H         4.774603   4.195   -5.318787 H        1 UNL1     0.0317
     82 H         6.693234   2.995274   -6.401939 H        1 UNL1     0.0428
     83 H         5.140557   2.505137   -7.042769 H        1 UNL1     0.0428
     84 H         6.919768   -0.084755   -4.173971 H        1 UNL1     0.0428
     85 H         7.826456   1.322797   -4.605061 H        1 UNL1     0.0428
     86 H         6.528129   1.422028   -2.476833 H        1 UNL1     0.0317
     87 H         5.035033   1.178903   -3.260354 H        1 UNL1     0.0317
     88 H         7.282453   0.79554   -7.371655 H        1 UNL1     0.0429
     89 H         6.921054   -0.680182   -6.472839 H        1 UNL1     0.0429
     90 H         4.379748   0.115799   -7.295379 H        1 UNL1     0.0308
     91 H         6.322838   0.906864   -9.543476 H        1 UNL1     0.0233
     92 H         4.554311   0.758385   -9.703977 H        1 UNL1     0.0233
     93 H         5.246535   2.010936   -8.695738 H        1 UNL1     0.0233
     94 H         4.677341   -1.60008   -9.119097 H        1 UNL1     0.0233
     95 H         6.374398   -1.712344   -8.627442 H        1 UNL1     0.0233
     96 H         5.086211   -2.137782   -7.476977 H        1 UNL1     0.0233
     97 H         4.110238   10.531605   -0.235732 H        1 UNL1     0.0280
     98 H         5.716497   11.151112   -0.506526 H        1 UNL1     0.0280
     99 H         4.537394   11.124817   -1.851425 H        1 UNL1     0.0280
     100 H         6.664014   10.696609   -3.15101 H        1 UNL1     0.2922
     101 H         4.691539   0.935093   2.433948 H        1 UNL1     0.0236
     102 H         6.001255   2.178958   2.49317 H        1 UNL1     0.0236
     103 H         6.313032   0.563598   1.937379 H        1 UNL1     0.0236
     104 H         4.329946   -0.527159   1.294325 H        1 UNL1     0.2098
     105 H         0.707879   1.270467   -0.946367 H        1 UNL1     0.0234
     106 H         1.29513   -0.415657   -1.003081 H        1 UNL1     0.0234
     107 H         0.0   -0.0   0.0 H        1 UNL1     0.0234
     108 H         1.184547   3.289195   1.706847 H        1 UNL1     0.2098
     109 H         1.072796   3.038721   -0.891809 H        1 UNL1     0.0234
     110 H         -0.179534   2.30598   -1.944217 H        1 UNL1     0.0234
     111 H         0.068958   4.016854   -1.941818 H        1 UNL1     0.0234
     112 H         -3.59918   -1.501636   1.4624 H        1 UNL1     0.0342
     113 H         -3.230068   0.136816   2.10852 H        1 UNL1     0.0342
     114 H         -4.423912   -0.068617   0.8238 H        1 UNL1     0.0342
     115 H         -2.66979   1.990772   3.274906 H        1 UNL1     0.0234
     116 H         -1.166085   1.977244   4.201983 H        1 UNL1     0.0234
     117 H         -1.642546   3.34259   3.171225 H        1 UNL1     0.0234
     118 H         0.922269   7.67436   -0.881214 H        1 UNL1     0.0309
     119 H         2.195753   7.760928   -2.13772 H        1 UNL1     0.0309
     120 H         1.441204   6.245007   -1.696361 H        1 UNL1     0.0309
     121 H         -0.374558   6.327334   2.718528 H        1 UNL1     0.0524
     122 H         -2.107562   6.062099   2.487872 H        1 UNL1     0.0524
     123 H         -1.294784   5.381136   3.919453 H        1 UNL1     0.0524
@<TRIPOS>BOND
     1     1     2    1
     2     1    42    1
     3     2     3    2
     4     3     4    1
     5     4     5    2
     6     5     7    1
     7     6    75    1
     8     6    76    1
     9     6    77    1
    10     7     9   am
    11     9    10    1
    12    10    11    2
    13    10    43    1
    14    11    14    1
    15    11    15    1
    16    12    13   ar
    17    12    27   ar
    18    12    43    1
    19    13    14    1
    20    13    30   ar
    21    14    17    2
    22    15    16    1
    23    16    17    1
    24    16    18    1
    25    16    22    1
    26    18    19    1
    27    19    20    1
    28    20    21    1
    29    21    22    1
    30    23    24    1
    31    23    88    1
    32    23    89    1
    33    24    25    1
    34    24    26    1
    35    24    90    1
    36    25    91    1
    37    25    92    1
    38    25    93    1
    39    26    94    1
    40    26    95    1
    41    26    96    1
    42    27    28   ar
    43    28    29   ar
    44    29    30   ar
    45    29    31    1
    46    30    33    1
    47    31    32    1
    48    32    33    1
    49    32    35    1
    50    34    97    1
    51    34    98    1
    52    34    99    1
    53    35    61    1
    54    36    37    1
    55    36    60    1
    56    37    38    1
    57    38    39    1
    58    39    40    1
    59    40    41    1
    60    41    42    1
    61    45   100    1
    62    47   101    1
    63    47   102    1
    64    47   103    1
    65    48   104    1
    66    49   105    1
    67    49   106    1
    68    49   107    1
    69    50   108    1
    70    51    59    1
    71    52   109    1
    72    52   110    1
    73    52   111    1
    74    53    54    1
    75    54    55    2
    76    54    56    1
    77    56   112    1
    78    56   113    1
    79    56   114    1
    80    57   115    1
    81    57   116    1
    82    57   117    1
    83    58   118    1
    84    58   119    1
    85    58   120    1
    86    59   121    1
    87    59   122    1
    88    59   123    1
    89    60    61    2
    90     1    47    1
    91     1    62    1
    92     2    63    1
    93     3    64    1
    94     4    65    1
    95     5     6    1
    96     7     8    2
    97     9    78    1
    98    15    79    1
    99    18    80    1
   100    18    81    1
   101    19    82    1
   102    19    83    1
   103    20    23    1
   104    21    84    1
   105    21    85    1
   106    22    86    1
   107    22    87    1
   108    27    45    1
   109    28    34    1
   110    32    58    1
   111    33    46    2
   112    36    51    1
   113    36    66    1
   114    37    52    1
   115    37    67    1
   116    38    53    1
   117    38    68    1
   118    42    48    1
   119    42    72    1
   120    43    44    2
   121    60    73    1
   122    61    74    1
   123    39    69    1
   124    39    57    1
   125    40    70    1
   126    40    50    1
   127    41    71    1
   128    41    49    1
