@<TRIPOS>MOLECULE
*****
 123 128 0 0 0
SMALL
GASTEIGER

@<TRIPOS>ATOM
     1 C         -0.458577   -4.451445   -2.183079 C.3        1 UNL1     0.0009
     2 C         0.707072   -5.748196   -2.812949 C.2        1 UNL1     -0.0787
     3 C         1.255631   -6.518289   -3.909346 C.2        1 UNL1     -0.0649
     4 C         2.545237   -7.614457   -3.868254 C.2        1 UNL1     -0.0542
     5 C         3.521535   -8.288134   -4.642901 C.2        1 UNL1     0.0115
     6 C         3.97496   -8.604154   -6.094748 C.3        1 UNL1     -0.0348
     7 C         4.793285   -8.929877   -3.902761 C.2        1 UNL1     0.2441
     8 O         4.894689   -10.126881   -3.671627 O.2        1 UNL1     -0.2702
     9 N         5.895766   -8.067561   -3.771992 N.am        1 UNL1     -0.2772
     10 C         5.796439   -7.3336   -2.612355 C.2        1 UNL1     0.1049
     11 C         5.040684   -6.25211   -2.670966 C.2        1 UNL1     0.0801
     12 C         5.36241   -7.550809   -0.158425 C.ar        1 UNL1     0.0753
     13 C         4.395056   -6.507856   -0.3168 C.ar        1 UNL1     0.0305
     14 C         4.298181   -5.735424   -1.553334 C.2        1 UNL1     0.0924
     15 N         4.511966   -5.624397   -3.735373 N.pl3        1 UNL1     -0.3170
     16 C         3.916704   -4.399165   -3.271989 C.3        1 UNL1     0.1275
     17 N         3.539058   -4.681158   -1.838258 N.2        1 UNL1     -0.2557
     18 C         5.023353   -3.350202   -3.219954 C.3        1 UNL1     0.0016
     19 C         5.667945   -3.25475   -4.593628 C.3        1 UNL1     0.0026
     20 N         4.646208   -2.890693   -5.565505 N.3        1 UNL1     -0.3018
     21 C         3.508059   -3.808704   -5.644504 C.3        1 UNL1     0.0026
     22 C         2.872858   -3.885907   -4.255096 C.3        1 UNL1     0.0016
     23 C         5.20085   -2.483284   -6.841057 C.3        1 UNL1     0.0012
     24 C         6.711528   -2.230617   -6.715484 C.3        1 UNL1     -0.0339
     25 C         7.379974   -3.264498   -5.794437 C.3        1 UNL1     -0.0615
     26 C         7.352537   -2.211377   -8.092261 C.3        1 UNL1     -0.0615
     27 C         5.530025   -8.200474   1.062214 C.ar        1 UNL1     0.1347
     28 C         4.819052   -7.868495   2.201669 C.ar        1 UNL1     0.0342
     29 C         3.83824   -6.872379   2.00951 C.ar        1 UNL1     0.1435
     30 C         3.634145   -6.237958   0.783511 C.ar        1 UNL1     0.0774
     31 O         3.139415   -6.362012   3.046899 O.3        1 UNL1     -0.4436
     32 C         2.629506   -5.111348   2.560377 C.3        1 UNL1     0.3143
     33 C         2.60782   -5.252334   1.05178 C.2        1 UNL1     0.2504
     34 C         5.117382   -8.343075   3.596614 C.3        1 UNL1     -0.0327
     35 O         1.266077   -5.011277   2.989676 O.2        1 UNL1     -0.4528
     36 C         0.579876   -1.30283   3.419367 C.3        1 UNL1     0.0854
     37 C         0.715957   -0.135936   2.367053 C.3        1 UNL1     0.0236
     38 C         -0.609758   0.741214   2.15532 C.3        1 UNL1     0.1131
     39 C         -1.988562   0.022518   1.864378 C.3        1 UNL1     0.0200
     40 C         -2.067977   -1.248658   0.787233 C.3        1 UNL1     0.0661
     41 C         -1.427653   -1.261515   -0.783573 C.3        1 UNL1     0.0091
     42 C         -0.727752   -2.639316   -1.77211 C.3        1 UNL1     0.0661
     43 C         6.243417   -7.856709   -1.31277 C.2        1 UNL1     0.2131
     44 O         7.323067   -8.409882   -1.207447 O.2        1 UNL1     -0.2851
     45 O         6.461164   -9.235424   1.119639 O.3        1 UNL1     -0.5056
     46 O         1.889806   -4.693544   0.252992 O.2        1 UNL1     -0.2836
     47 C         -1.910389   -5.000344   -2.152543 C.3        1 UNL1     -0.0566
     48 O         -1.500178   -2.306528   -2.993472 O.3        1 UNL1     -0.3909
     49 C         -0.487851   -0.086483   -0.937092 C.3        1 UNL1     -0.0577
     50 O         -1.784318   -2.472622   1.434668 O.3        1 UNL1     -0.3910
     51 O         -0.720106   -1.541715   3.909685 O.3        1 UNL1     -0.3753
     52 C         1.649664   -0.531723   1.176888 C.3        1 UNL1     -0.0564
     53 O         -0.365347   2.034565   1.434325 O.3        1 UNL1     -0.4608
     54 C         0.865042   2.574123   1.164233 C.2        1 UNL1     0.3042
     55 O         1.236514   3.098782   0.115148 O.2        1 UNL1     -0.2512
     56 C         1.805683   2.542657   2.335096 C.3        1 UNL1     0.0332
     57 C         -2.754754   -0.133883   3.259607 C.3        1 UNL1     -0.0567
     58 C         3.670644   -4.03481   2.945901 C.3        1 UNL1     0.0210
     59 C         -1.078279   -2.919042   4.012387 C.3        1 UNL1     0.0372
     60 C         1.119037   -2.616822   2.974518 C.2        1 UNL1     -0.0208
     61 C         0.602771   -3.842311   3.076451 C.2        1 UNL1     0.0882
     62 H         -0.047433   -4.597865   -1.176981 H        1 UNL1     0.0365
     63 H         1.141353   -6.103858   -1.876267 H        1 UNL1     0.0576
     64 H         0.968481   -6.324216   -4.945197 H        1 UNL1     0.0615
     65 H         2.697305   -7.798057   -2.801178 H        1 UNL1     0.0622
     66 H         1.210242   -0.988521   4.263105 H        1 UNL1     0.0645
     67 H         1.384492   0.591929   2.858819 H        1 UNL1     0.0362
     68 H         -0.710734   1.168537   3.164637 H        1 UNL1     0.0741
     69 H         -2.67179   0.741896   1.432983 H        1 UNL1     0.0359
     70 H         -3.159596   -1.277718   0.606718 H        1 UNL1     0.0600
     71 H         -2.309398   -0.910247   -1.354618 H        1 UNL1     0.0348
     72 H         -1.33067   -3.109086   -0.981463 H        1 UNL1     0.0602
     73 H         2.116056   -2.487743   2.633139 H        1 UNL1     0.0628
     74 H         -0.427983   -4.055454   3.361677 H        1 UNL1     0.1022
     75 H         3.3358   -8.061086   -6.832032 H        1 UNL1     0.0279
     76 H         4.976507   -8.282294   -6.371112 H        1 UNL1     0.0279
     77 H         3.792306   -9.650834   -6.379002 H        1 UNL1     0.0279
     78 H         5.910652   -7.411054   -4.549715 H        1 UNL1     0.1553
     79 H         4.841992   -5.747177   -4.675022 H        1 UNL1     0.1484
     80 H         4.59169   -2.390045   -2.912492 H        1 UNL1     0.0317
     81 H         5.774951   -3.61135   -2.467256 H        1 UNL1     0.0317
     82 H         6.165904   -4.194058   -4.875847 H        1 UNL1     0.0428
     83 H         6.455214   -2.502652   -4.533582 H        1 UNL1     0.0428
     84 H         2.718483   -3.471083   -6.323027 H        1 UNL1     0.0428
     85 H         3.801081   -4.789738   -6.043288 H        1 UNL1     0.0428
     86 H         1.971359   -4.456558   -4.38017 H        1 UNL1     0.0317
     87 H         2.507226   -2.896366   -3.954731 H        1 UNL1     0.0317
     88 H         5.041334   -3.298511   -7.55887 H        1 UNL1     0.0429
     89 H         4.683233   -1.600131   -7.237148 H        1 UNL1     0.0429
     90 H         6.874823   -1.231218   -6.295069 H        1 UNL1     0.0308
     91 H         8.440716   -3.03977   -5.648063 H        1 UNL1     0.0233
     92 H         6.882307   -3.294711   -4.822314 H        1 UNL1     0.0233
     93 H         7.323289   -4.282413   -6.198753 H        1 UNL1     0.0233
     94 H         7.58893   -3.231673   -8.413122 H        1 UNL1     0.0233
     95 H         6.659957   -1.780786   -8.820881 H        1 UNL1     0.0233
     96 H         8.276127   -1.625761   -8.094278 H        1 UNL1     0.0233
     97 H         4.28588   -8.89379   4.026204 H        1 UNL1     0.0280
     98 H         5.977133   -9.025116   3.626698 H        1 UNL1     0.0280
     99 H         5.329061   -7.476331   4.243949 H        1 UNL1     0.0280
     100 H         6.952448   -9.276047   1.92127 H        1 UNL1     0.2922
     101 H         -2.562179   -4.288108   -1.647028 H        1 UNL1     0.0236
     102 H         -1.982396   -5.998201   -1.721172 H        1 UNL1     0.0236
     103 H         -2.33671   -5.100313   -3.164694 H        1 UNL1     0.0236
     104 H         -0.861598   -2.034305   -3.68128 H        1 UNL1     0.2098
     105 H         0.276197   -0.219048   -1.698977 H        1 UNL1     0.0234
     106 H         -0.980752   0.877796   -1.060143 H        1 UNL1     0.0234
     107 H         0.0   0.0   0.0 H        1 UNL1     0.0234
     108 H         -2.607619   -2.997925   1.435614 H        1 UNL1     0.2098
     109 H         2.702909   -0.28944   1.376103 H        1 UNL1     0.0234
     110 H         1.563391   -1.586507   0.89452 H        1 UNL1     0.0234
     111 H         1.38808   0.01177   0.259209 H        1 UNL1     0.0234
     112 H         2.76159   2.996701   2.05683 H        1 UNL1     0.0342
     113 H         1.383098   3.028837   3.213102 H        1 UNL1     0.0342
     114 H         1.994877   1.492045   2.595066 H        1 UNL1     0.0342
     115 H         -3.422944   0.715882   3.4561 H        1 UNL1     0.0234
     116 H         -3.350558   -1.045331   3.339165 H        1 UNL1     0.0234
     117 H         -2.086188   -0.086434   4.136368 H        1 UNL1     0.0234
     118 H         3.218012   -3.031192   3.028847 H        1 UNL1     0.0309
     119 H         4.203404   -4.265235   3.87395 H        1 UNL1     0.0309
     120 H         4.441371   -3.901662   2.178856 H        1 UNL1     0.0309
     121 H         -1.873134   -2.998622   4.753488 H        1 UNL1     0.0524
     122 H         -1.468232   -3.321848   3.062797 H        1 UNL1     0.0524
     123 H         -0.219231   -3.508912   4.319279 H        1 UNL1     0.0524
@<TRIPOS>BOND
     1     1     2    1
     2     1    42    1
     3     2     3    2
     4     3     4    1
     5     4     5    2
     6     5     7    1
     7     6    75    1
     8     6    76    1
     9     6    77    1
    10     7     9   am
    11     9    10    1
    12    10    11    2
    13    10    43    1
    14    11    14    1
    15    11    15    1
    16    12    13   ar
    17    12    27   ar
    18    12    43    1
    19    13    14    1
    20    13    30   ar
    21    14    17    2
    22    15    16    1
    23    16    17    1
    24    16    18    1
    25    16    22    1
    26    18    19    1
    27    19    20    1
    28    20    21    1
    29    21    22    1
    30    23    24    1
    31    23    88    1
    32    23    89    1
    33    24    25    1
    34    24    26    1
    35    24    90    1
    36    25    91    1
    37    25    92    1
    38    25    93    1
    39    26    94    1
    40    26    95    1
    41    26    96    1
    42    27    28   ar
    43    28    29   ar
    44    29    30   ar
    45    29    31    1
    46    30    33    1
    47    31    32    1
    48    32    33    1
    49    32    35    1
    50    34    97    1
    51    34    98    1
    52    34    99    1
    53    35    61    1
    54    36    37    1
    55    36    60    1
    56    37    38    1
    57    38    39    1
    58    39    40    1
    59    40    41    1
    60    41    42    1
    61    45   100    1
    62    47   101    1
    63    47   102    1
    64    47   103    1
    65    48   104    1
    66    49   105    1
    67    49   106    1
    68    49   107    1
    69    50   108    1
    70    51    59    1
    71    52   109    1
    72    52   110    1
    73    52   111    1
    74    53    54    1
    75    54    55    2
    76    54    56    1
    77    56   112    1
    78    56   113    1
    79    56   114    1
    80    57   115    1
    81    57   116    1
    82    57   117    1
    83    58   118    1
    84    58   119    1
    85    58   120    1
    86    59   121    1
    87    59   122    1
    88    59   123    1
    89    60    61    2
    90     1    47    1
    91     1    62    1
    92     2    63    1
    93     3    64    1
    94     4    65    1
    95     5     6    1
    96     7     8    2
    97     9    78    1
    98    15    79    1
    99    18    80    1
   100    18    81    1
   101    19    82    1
   102    19    83    1
   103    20    23    1
   104    21    84    1
   105    21    85    1
   106    22    86    1
   107    22    87    1
   108    27    45    1
   109    28    34    1
   110    32    58    1
   111    33    46    2
   112    36    51    1
   113    36    66    1
   114    37    52    1
   115    37    67    1
   116    38    53    1
   117    38    68    1
   118    42    48    1
   119    42    72    1
   120    43    44    2
   121    60    73    1
   122    61    74    1
   123    39    69    1
   124    39    57    1
   125    40    70    1
   126    40    50    1
   127    41    71    1
   128    41    49    1
