@<TRIPOS>MOLECULE
*****
 123 128 0 0 0
SMALL
GASTEIGER

@<TRIPOS>ATOM
     1 C         2.342746   1.893603   4.318768 C.3        1 UNL1     0.0009
     2 C         3.361772   3.283209   5.002596 C.2        1 UNL1     -0.0787
     3 C         4.652909   3.885664   5.259616 C.2        1 UNL1     -0.0649
     4 C         4.976738   5.418931   5.900385 C.2        1 UNL1     -0.0542
     5 C         5.948165   6.442124   6.028775 C.2        1 UNL1     0.0115
     6 C         7.445425   6.788917   5.80234 C.3        1 UNL1     -0.0348
     7 C         5.471667   7.918284   6.442161 C.2        1 UNL1     0.2441
     8 O         5.598314   8.36596   7.573564 O.2        1 UNL1     -0.2702
     9 N         5.139729   8.754189   5.361776 N.am        1 UNL1     -0.2772
     10 C         3.815196   8.598224   5.023235 C.2        1 UNL1     0.1049
     11 C         3.532249   7.576946   4.235102 C.2        1 UNL1     0.0801
     12 C         1.512873   8.532649   5.999116 C.ar        1 UNL1     0.0753
     13 C         1.328599   7.307791   5.281916 C.ar        1 UNL1     0.0305
     14 C         2.286402   6.86016   4.273308 C.2        1 UNL1     0.0924
     15 N         4.350819   6.776164   3.531384 N.pl3        1 UNL1     -0.3170
     16 C         3.53295   5.931183   2.702318 C.3        1 UNL1     0.1275
     17 N         2.227752   5.816233   3.451296 N.2        1 UNL1     -0.2557
     18 C         3.22287   6.71132   1.428372 C.3        1 UNL1     0.0016
     19 C         4.534158   7.138848   0.788582 C.3        1 UNL1     0.0026
     20 N         5.321585   5.949177   0.495886 N.3        1 UNL1     -0.3018
     21 C         5.618656   5.100366   1.651584 C.3        1 UNL1     0.0026
     22 C         4.287412   4.678743   2.27602 C.3        1 UNL1     0.0016
     23 C         6.44594   6.218082   -0.378276 C.3        1 UNL1     0.0012
     24 C         6.55308   5.137607   -1.465866 C.3        1 UNL1     -0.0339
     25 C         6.085489   3.7682   -0.946117 C.3        1 UNL1     -0.0615
     26 C         5.776215   5.562102   -2.699991 C.3        1 UNL1     -0.0615
     27 C         0.537629   9.012819   6.870009 C.ar        1 UNL1     0.1347
     28 C         -0.674835   8.37865   7.074487 C.ar        1 UNL1     0.0342
     29 C         -0.813815   7.14959   6.395325 C.ar        1 UNL1     0.1435
     30 C         0.169582   6.638048   5.547696 C.ar        1 UNL1     0.0774
     31 O         -1.979419   6.466748   6.405324 O.3        1 UNL1     -0.4436
     32 C         -1.892291   5.584018   5.276577 C.3        1 UNL1     0.3143
     33 C         -0.408739   5.422832   5.013317 C.2        1 UNL1     0.2504
     34 C         -1.862358   8.957043   7.792365 C.3        1 UNL1     -0.0327
     35 O         -2.382741   4.305032   5.697179 O.2        1 UNL1     -0.4528
     36 C         -3.885553   2.698213   2.603997 C.3        1 UNL1     0.0854
     37 C         -3.208767   2.388394   1.213495 C.3        1 UNL1     0.0236
     38 C         -3.30767   0.859606   0.739396 C.3        1 UNL1     0.1131
     39 C         -2.874018   -0.29809   1.726288 C.3        1 UNL1     0.0200
     40 C         -1.480675   -0.157996   2.632602 C.3        1 UNL1     0.0661
     41 C         0.050257   0.271387   2.041426 C.3        1 UNL1     0.0091
     42 C         1.418491   1.195417   2.841118 C.3        1 UNL1     0.0661
     43 C         2.738429   9.320476   5.716978 C.2        1 UNL1     0.2131
     44 O         2.836875   10.514015   5.937225 O.2        1 UNL1     -0.2851
     45 O         0.81487   10.188961   7.563741 O.3        1 UNL1     -0.5056
     46 O         0.168372   4.491239   4.498604 O.2        1 UNL1     -0.2836
     47 C         2.417193   0.658319   5.256058 C.3        1 UNL1     -0.0566
     48 O         2.462972   0.222882   2.438191 O.3        1 UNL1     -0.3909
     49 C         -0.10555   0.833708   0.646072 C.3        1 UNL1     -0.0577
     50 O         -1.737915   0.520384   3.845594 O.3        1 UNL1     -0.3910
     51 O         -4.334606   1.578658   3.333641 O.3        1 UNL1     -0.3753
     52 C         -1.921128   3.246624   0.989055 C.3        1 UNL1     -0.0564
     53 O         -2.980293   0.658344   -0.711343 O.3        1 UNL1     -0.4608
     54 C         -1.724011   0.465277   -1.223605 C.2        1 UNL1     0.3042
     55 O         -0.753877   1.215606   -1.125199 O.2        1 UNL1     -0.2512
     56 C         -1.556947   -0.851948   -1.926259 C.3        1 UNL1     0.0332
     57 C         -4.192949   -0.822788   2.463369 C.3        1 UNL1     -0.0567
     58 C         -2.531912   6.333582   4.084701 C.3        1 UNL1     0.0210
     59 C         -4.097929   1.644972   4.739149 C.3        1 UNL1     0.0372
     60 C         -3.062   3.515767   3.535945 C.2        1 UNL1     -0.0208
     61 C         -2.826532   3.365661   4.84008 C.2        1 UNL1     0.0882
     62 H         1.437252   2.445098   4.599206 H        1 UNL1     0.0365
     63 H         2.583722   3.905132   5.450167 H        1 UNL1     0.0576
     64 H         5.577803   3.436249   4.891234 H        1 UNL1     0.0615
     65 H         4.013916   5.740141   6.306932 H        1 UNL1     0.0622
     66 H         -4.759925   3.31547   2.353966 H        1 UNL1     0.0645
     67 H         -3.86373   2.88872   0.479153 H        1 UNL1     0.0362
     68 H         -4.400255   0.767126   0.643333 H        1 UNL1     0.0741
     69 H         -2.693392   -1.196351   1.15104 H        1 UNL1     0.0359
     70 H         -1.340241   -1.214553   2.930973 H        1 UNL1     0.0600
     71 H         0.462953   -0.733624   1.825573 H        1 UNL1     0.0348
     72 H         0.774352   0.83984   3.65841 H        1 UNL1     0.0602
     73 H         -2.735221   4.393138   3.035261 H        1 UNL1     0.0628
     74 H         -3.076662   2.472125   5.413023 H        1 UNL1     0.1022
     75 H         7.555671   7.526011   4.970732 H        1 UNL1     0.0279
     76 H         7.958317   7.284097   6.623806 H        1 UNL1     0.0279
     77 H         8.025348   5.937927   5.416068 H        1 UNL1     0.0279
     78 H         5.695907   8.498975   4.548382 H        1 UNL1     0.1553
     79 H         5.297723   7.013461   3.299013 H        1 UNL1     0.1484
     80 H         2.636522   6.075825   0.753754 H        1 UNL1     0.0317
     81 H         2.605565   7.589125   1.647562 H        1 UNL1     0.0317
     82 H         5.092826   7.835044   1.431322 H        1 UNL1     0.0428
     83 H         4.289841   7.694978   -0.117 H        1 UNL1     0.0428
     84 H         6.141573   4.17439   1.392863 H        1 UNL1     0.0428
     85 H         6.293238   5.598222   2.361792 H        1 UNL1     0.0428
     86 H         4.537551   3.956743   3.031092 H        1 UNL1     0.0317
     87 H         3.701871   4.097562   1.553202 H        1 UNL1     0.0317
     88 H         6.276321   7.18771   -0.864429 H        1 UNL1     0.0429
     89 H         7.381397   6.30235   0.189697 H        1 UNL1     0.0429
     90 H         7.598545   5.051578   -1.784949 H        1 UNL1     0.0308
     91 H         6.9146   3.055721   -0.900832 H        1 UNL1     0.0233
     92 H         5.639882   3.8635   0.046839 H        1 UNL1     0.0233
     93 H         5.315226   3.31975   -1.585196 H        1 UNL1     0.0233
     94 H         6.434976   6.090157   -3.397866 H        1 UNL1     0.0233
     95 H         5.378638   4.681581   -3.212414 H        1 UNL1     0.0233
     96 H         4.945644   6.224478   -2.44042 H        1 UNL1     0.0233
     97 H         -2.380528   8.212018   8.388745 H        1 UNL1     0.0280
     98 H         -1.575884   9.754554   8.490337 H        1 UNL1     0.0280
     99 H         -2.574049   9.367336   7.057348 H        1 UNL1     0.0280
     100 H         0.181983   10.413003   8.223198 H        1 UNL1     0.2922
     101 H         1.474798   0.112192   5.220106 H        1 UNL1     0.0236
     102 H         2.704853   0.910916   6.276073 H        1 UNL1     0.0236
     103 H         3.175417   -0.069642   4.922348 H        1 UNL1     0.0236
     104 H         3.331884   0.627045   2.62954 H        1 UNL1     0.2098
     105 H         -1.074342   1.28618   0.449799 H        1 UNL1     0.0234
     106 H         0.694844   1.50413   0.333295 H        1 UNL1     0.0234
     107 H         0.0   0.0   -0.0 H        1 UNL1     0.0234
     108 H         -2.521943   0.10247   4.251078 H        1 UNL1     0.2098
     109 H         -1.294339   2.851813   0.177284 H        1 UNL1     0.0234
     110 H         -2.135876   4.304747   0.804658 H        1 UNL1     0.0234
     111 H         -1.280741   3.256487   1.881105 H        1 UNL1     0.0234
     112 H         -2.165352   -0.868462   -2.835609 H        1 UNL1     0.0342
     113 H         -0.51325   -1.067019   -2.150501 H        1 UNL1     0.0342
     114 H         -1.924645   -1.644955   -1.2606 H        1 UNL1     0.0342
     115 H         -4.514235   -0.139203   3.261289 H        1 UNL1     0.0234
     116 H         -5.04443   -0.972408   1.796554 H        1 UNL1     0.0234
     117 H         -4.037523   -1.755838   3.031877 H        1 UNL1     0.0234
     118 H         -1.775369   6.682518   3.360207 H        1 UNL1     0.0309
     119 H         -3.285131   5.7393   3.557736 H        1 UNL1     0.0309
     120 H         -3.034269   7.257927   4.390199 H        1 UNL1     0.0309
     121 H         -4.747313   2.419305   5.146661 H        1 UNL1     0.0524
     122 H         -4.346774   0.700098   5.250349 H        1 UNL1     0.0524
     123 H         -3.057172   1.887778   4.933989 H        1 UNL1     0.0524
@<TRIPOS>BOND
     1     1     2    1
     2     1    42    1
     3     2     3    2
     4     3     4    1
     5     4     5    2
     6     5     7    1
     7     6    75    1
     8     6    76    1
     9     6    77    1
    10     7     9   am
    11     9    10    1
    12    10    11    2
    13    10    43    1
    14    11    14    1
    15    11    15    1
    16    12    13   ar
    17    12    27   ar
    18    12    43    1
    19    13    14    1
    20    13    30   ar
    21    14    17    2
    22    15    16    1
    23    16    17    1
    24    16    18    1
    25    16    22    1
    26    18    19    1
    27    19    20    1
    28    20    21    1
    29    21    22    1
    30    23    24    1
    31    23    88    1
    32    23    89    1
    33    24    25    1
    34    24    26    1
    35    24    90    1
    36    25    91    1
    37    25    92    1
    38    25    93    1
    39    26    94    1
    40    26    95    1
    41    26    96    1
    42    27    28   ar
    43    28    29   ar
    44    29    30   ar
    45    29    31    1
    46    30    33    1
    47    31    32    1
    48    32    33    1
    49    32    35    1
    50    34    97    1
    51    34    98    1
    52    34    99    1
    53    35    61    1
    54    36    37    1
    55    36    60    1
    56    37    38    1
    57    38    39    1
    58    39    40    1
    59    40    41    1
    60    41    42    1
    61    45   100    1
    62    47   101    1
    63    47   102    1
    64    47   103    1
    65    48   104    1
    66    49   105    1
    67    49   106    1
    68    49   107    1
    69    50   108    1
    70    51    59    1
    71    52   109    1
    72    52   110    1
    73    52   111    1
    74    53    54    1
    75    54    55    2
    76    54    56    1
    77    56   112    1
    78    56   113    1
    79    56   114    1
    80    57   115    1
    81    57   116    1
    82    57   117    1
    83    58   118    1
    84    58   119    1
    85    58   120    1
    86    59   121    1
    87    59   122    1
    88    59   123    1
    89    60    61    2
    90     1    47    1
    91     1    62    1
    92     2    63    1
    93     3    64    1
    94     4    65    1
    95     5     6    1
    96     7     8    2
    97     9    78    1
    98    15    79    1
    99    18    80    1
   100    18    81    1
   101    19    82    1
   102    19    83    1
   103    20    23    1
   104    21    84    1
   105    21    85    1
   106    22    86    1
   107    22    87    1
   108    27    45    1
   109    28    34    1
   110    32    58    1
   111    33    46    2
   112    36    51    1
   113    36    66    1
   114    37    52    1
   115    37    67    1
   116    38    53    1
   117    38    68    1
   118    42    48    1
   119    42    72    1
   120    43    44    2
   121    60    73    1
   122    61    74    1
   123    39    69    1
   124    39    57    1
   125    40    70    1
   126    40    50    1
   127    41    71    1
   128    41    49    1
