@<TRIPOS>MOLECULE
*****
 123 128 0 0 0
SMALL
GASTEIGER

@<TRIPOS>ATOM
     1 C         5.167197   1.749182   0.4896 C.3        1 UNL1     0.0009
     2 C         6.603461   2.555627   -0.361181 C.2        1 UNL1     -0.0787
     3 C         7.885079   2.457718   -1.027451 C.2        1 UNL1     -0.0649
     4 C         8.7621   3.693101   -1.783109 C.2        1 UNL1     -0.0542
     5 C         9.781717   3.986062   -2.722063 C.2        1 UNL1     0.0115
     6 C         10.909625   3.360927   -3.588292 C.3        1 UNL1     -0.0348
     7 C         9.876665   5.469467   -3.328267 C.2        1 UNL1     0.2441
     8 O         10.700622   6.291108   -2.950738 O.2        1 UNL1     -0.2702
     9 N         9.125948   5.67663   -4.498591 N.am        1 UNL1     -0.2772
     10 C         7.843323   6.063114   -4.184227 C.2        1 UNL1     0.1049
     11 C         6.99775   5.091551   -3.892173 C.2        1 UNL1     0.0801
     12 C         6.545347   7.669315   -2.772593 C.ar        1 UNL1     0.0753
     13 C         5.786581   6.541223   -2.325055 C.ar        1 UNL1     0.0305
     14 C         5.903377   5.235682   -2.970788 C.2        1 UNL1     0.0924
     15 N         7.120435   3.762622   -4.051616 N.pl3        1 UNL1     -0.3170
     16 C         5.850762   3.163256   -3.737062 C.3        1 UNL1     0.1275
     17 N         5.214667   4.118204   -2.756664 N.2        1 UNL1     -0.2557
     18 C         4.997395   3.222533   -5.000373 C.3        1 UNL1     0.0016
     19 C         5.751884   2.538773   -6.129447 C.3        1 UNL1     0.0026
     20 N         6.022317   1.160609   -5.744013 N.3        1 UNL1     -0.3018
     21 C         6.786192   1.000006   -4.505034 C.3        1 UNL1     0.0026
     22 C         6.007835   1.690193   -3.383564 C.3        1 UNL1     0.0016
     23 C         6.466453   0.341369   -6.854072 C.3        1 UNL1     0.0012
     24 C         5.310633   0.092005   -7.835732 C.3        1 UNL1     -0.0339
     25 C         5.345768   1.084425   -9.009583 C.3        1 UNL1     -0.0615
     26 C         5.339678   -1.347379   -8.31958 C.3        1 UNL1     -0.0615
     27 C         6.340783   8.936866   -2.232606 C.ar        1 UNL1     0.1347
     28 C         5.382089   9.206102   -1.272154 C.ar        1 UNL1     0.0342
     29 C         4.680825   8.071479   -0.811694 C.ar        1 UNL1     0.1435
     30 C         4.900187   6.789588   -1.317516 C.ar        1 UNL1     0.0774
     31 O         3.640171   8.184751   0.042247 O.3        1 UNL1     -0.4436
     32 C         2.918555   6.951893   -0.099897 C.3        1 UNL1     0.3143
     33 C         3.93173   5.959006   -0.632685 C.2        1 UNL1     0.2504
     34 C         4.935298   10.572063   -0.830987 C.3        1 UNL1     -0.0327
     35 O         2.5585   6.514863   1.216392 O.2        1 UNL1     -0.4528
     36 C         -0.684521   4.582451   0.820559 C.3        1 UNL1     0.0854
     37 C         -0.990075   3.322037   -0.076947 C.3        1 UNL1     0.0236
     38 C         -1.590183   2.06076   0.710957 C.3        1 UNL1     0.1131
     39 C         -0.863836   1.529607   2.011944 C.3        1 UNL1     0.0200
     40 C         0.797387   1.384214   2.052393 C.3        1 UNL1     0.0661
     41 C         1.756347   0.615735   0.883015 C.3        1 UNL1     0.0091
     42 C         3.463665   0.978581   0.318384 C.3        1 UNL1     0.0661
     43 C         7.494945   7.461952   -3.893987 C.2        1 UNL1     0.2131
     44 O         7.894444   8.360226   -4.612486 O.2        1 UNL1     -0.2851
     45 O         7.15276   9.972152   -2.691205 O.3        1 UNL1     -0.5056
     46 O         3.947889   4.755445   -0.502178 O.2        1 UNL1     -0.2836
     47 C         5.564198   1.31943   1.927545 C.3        1 UNL1     -0.0566
     48 O         3.912398   -0.432499   0.399677 O.3        1 UNL1     -0.3909
     49 C         0.921667   0.383333   -0.356659 C.3        1 UNL1     -0.0577
     50 O         1.397632   2.602048   2.445213 O.3        1 UNL1     -0.3910
     51 O         -0.808013   4.392464   2.211992 O.3        1 UNL1     -0.3753
     52 C         0.053916   3.161914   -1.22994 C.3        1 UNL1     -0.0564
     53 O         -2.193062   1.021912   -0.188853 O.3        1 UNL1     -0.4608
     54 C         -2.427206   -0.284935   0.150642 C.2        1 UNL1     0.3042
     55 O         -1.857176   -1.283815   -0.286556 O.2        1 UNL1     -0.2512
     56 C         -3.468265   -0.451022   1.220841 C.3        1 UNL1     0.0332
     57 C         -1.584401   2.198262   3.273634 C.3        1 UNL1     -0.0567
     58 C         1.842883   7.197114   -1.183561 C.3        1 UNL1     0.0210
     59 C         -1.121012   5.571282   2.952456 C.3        1 UNL1     0.0372
     60 C         0.644319   5.211709   0.589521 C.2        1 UNL1     -0.0208
     61 C         1.557577   5.646844   1.458637 C.2        1 UNL1     0.0882
     62 H         4.691221   2.733291   0.577276 H        1 UNL1     0.0365
     63 H         6.337159   3.609379   -0.255542 H        1 UNL1     0.0576
     64 H         8.342731   1.490958   -1.248895 H        1 UNL1     0.0615
     65 H         8.275078   4.608379   -1.435893 H        1 UNL1     0.0622
     66 H         -1.429372   5.328974   0.510807 H        1 UNL1     0.0645
     67 H         -1.855909   3.63145   -0.687811 H        1 UNL1     0.0362
     68 H         -2.537146   2.497474   1.063185 H        1 UNL1     0.0741
     69 H         -1.195182   0.518437   2.207274 H        1 UNL1     0.0359
     70 H         0.909596   0.723709   2.933417 H        1 UNL1     0.0600
     71 H         1.800205   -0.405516   1.309725 H        1 UNL1     0.0348
     72 H         3.358152   1.466572   1.298204 H        1 UNL1     0.0602
     73 H         0.761758   5.409186   -0.44704 H        1 UNL1     0.0628
     74 H         1.540503   5.435956   2.528437 H        1 UNL1     0.1022
     75 H         10.935652   2.252232   -3.457323 H        1 UNL1     0.0279
     76 H         10.808965   3.467197   -4.666087 H        1 UNL1     0.0279
     77 H         11.91561   3.643462   -3.244974 H        1 UNL1     0.0279
     78 H         9.063806   4.806784   -5.023552 H        1 UNL1     0.1553
     79 H         7.785483   3.33482   -4.669378 H        1 UNL1     0.1484
     80 H         4.036241   2.731471   -4.805932 H        1 UNL1     0.0317
     81 H         4.770576   4.259321   -5.271066 H        1 UNL1     0.0317
     82 H         6.682393   3.070212   -6.377718 H        1 UNL1     0.0428
     83 H         5.126348   2.594042   -7.020906 H        1 UNL1     0.0428
     84 H         6.90674   -0.042999   -4.19613 H        1 UNL1     0.0428
     85 H         7.816207   1.368155   -4.609214 H        1 UNL1     0.0428
     86 H         6.524667   1.439692   -2.475752 H        1 UNL1     0.0317
     87 H         5.028487   1.212441   -3.258156 H        1 UNL1     0.0317
     88 H         7.262242   0.883347   -7.381589 H        1 UNL1     0.0429
     89 H         6.899284   -0.604436   -6.503523 H        1 UNL1     0.0429
     90 H         4.357814   0.210884   -7.306377 H        1 UNL1     0.0308
     91 H         6.298715   1.033845   -9.544779 H        1 UNL1     0.0233
     92 H         4.530598   0.884518   -9.708971 H        1 UNL1     0.0233
     93 H         5.219681   2.123456   -8.681937 H        1 UNL1     0.0233
     94 H         4.644846   -1.47874   -9.156114 H        1 UNL1     0.0233
     95 H         6.343059   -1.603116   -8.671415 H        1 UNL1     0.0233
     96 H         5.057149   -2.041788   -7.523376 H        1 UNL1     0.0233
     97 H         4.135983   10.522196   -0.097613 H        1 UNL1     0.0280
     98 H         5.745778   11.138602   -0.354109 H        1 UNL1     0.0280
     99 H         4.570006   11.140116   -1.702177 H        1 UNL1     0.0280
     100 H         6.685535   10.723308   -3.012279 H        1 UNL1     0.2922
     101 H         4.698498   0.897023   2.437244 H        1 UNL1     0.0236
     102 H         6.026243   2.121323   2.502406 H        1 UNL1     0.0236
     103 H         6.311345   0.508282   1.925941 H        1 UNL1     0.0236
     104 H         4.326937   -0.560199   1.27536 H        1 UNL1     0.2098
     105 H         0.70869   1.282259   -0.929709 H        1 UNL1     0.0234
     106 H         1.29085   -0.404523   -1.0131 H        1 UNL1     0.0234
     107 H         0.0   -0.0   0.0 H        1 UNL1     0.0234
     108 H         1.213746   3.255759   1.743346 H        1 UNL1     0.2098
     109 H         1.080371   3.060852   -0.850615 H        1 UNL1     0.0234
     110 H         -0.17207   2.327314   -1.902336 H        1 UNL1     0.0234
     111 H         0.065954   4.039631   -1.8898 H        1 UNL1     0.0234
     112 H         -3.5914   -1.511944   1.458807 H        1 UNL1     0.0342
     113 H         -3.232552   0.125022   2.114405 H        1 UNL1     0.0342
     114 H         -4.425451   -0.080507   0.828822 H        1 UNL1     0.0342
     115 H         -2.653985   1.949876   3.312146 H        1 UNL1     0.0234
     116 H         -1.147507   1.918354   4.234271 H        1 UNL1     0.0234
     117 H         -1.623126   3.300124   3.22524 H        1 UNL1     0.0234
     118 H         0.941316   7.682442   -0.770477 H        1 UNL1     0.0309
     119 H         2.211407   7.786598   -2.029079 H        1 UNL1     0.0309
     120 H         1.455326   6.265238   -1.609604 H        1 UNL1     0.0309
     121 H         -0.300089   6.274554   2.815157 H        1 UNL1     0.0524
     122 H         -2.041009   6.060306   2.591212 H        1 UNL1     0.0524
     123 H         -1.23851   5.333322   4.005861 H        1 UNL1     0.0524
@<TRIPOS>BOND
     1     1     2    1
     2     1    42    1
     3     2     3    2
     4     3     4    1
     5     4     5    2
     6     5     7    1
     7     6    75    1
     8     6    76    1
     9     6    77    1
    10     7     9   am
    11     9    10    1
    12    10    11    2
    13    10    43    1
    14    11    14    1
    15    11    15    1
    16    12    13   ar
    17    12    27   ar
    18    12    43    1
    19    13    14    1
    20    13    30   ar
    21    14    17    2
    22    15    16    1
    23    16    17    1
    24    16    18    1
    25    16    22    1
    26    18    19    1
    27    19    20    1
    28    20    21    1
    29    21    22    1
    30    23    24    1
    31    23    88    1
    32    23    89    1
    33    24    25    1
    34    24    26    1
    35    24    90    1
    36    25    91    1
    37    25    92    1
    38    25    93    1
    39    26    94    1
    40    26    95    1
    41    26    96    1
    42    27    28   ar
    43    28    29   ar
    44    29    30   ar
    45    29    31    1
    46    30    33    1
    47    31    32    1
    48    32    33    1
    49    32    35    1
    50    34    97    1
    51    34    98    1
    52    34    99    1
    53    35    61    1
    54    36    37    1
    55    36    60    1
    56    37    38    1
    57    38    39    1
    58    39    40    1
    59    40    41    1
    60    41    42    1
    61    45   100    1
    62    47   101    1
    63    47   102    1
    64    47   103    1
    65    48   104    1
    66    49   105    1
    67    49   106    1
    68    49   107    1
    69    50   108    1
    70    51    59    1
    71    52   109    1
    72    52   110    1
    73    52   111    1
    74    53    54    1
    75    54    55    2
    76    54    56    1
    77    56   112    1
    78    56   113    1
    79    56   114    1
    80    57   115    1
    81    57   116    1
    82    57   117    1
    83    58   118    1
    84    58   119    1
    85    58   120    1
    86    59   121    1
    87    59   122    1
    88    59   123    1
    89    60    61    2
    90     1    47    1
    91     1    62    1
    92     2    63    1
    93     3    64    1
    94     4    65    1
    95     5     6    1
    96     7     8    2
    97     9    78    1
    98    15    79    1
    99    18    80    1
   100    18    81    1
   101    19    82    1
   102    19    83    1
   103    20    23    1
   104    21    84    1
   105    21    85    1
   106    22    86    1
   107    22    87    1
   108    27    45    1
   109    28    34    1
   110    32    58    1
   111    33    46    2
   112    36    51    1
   113    36    66    1
   114    37    52    1
   115    37    67    1
   116    38    53    1
   117    38    68    1
   118    42    48    1
   119    42    72    1
   120    43    44    2
   121    60    73    1
   122    61    74    1
   123    39    69    1
   124    39    57    1
   125    40    70    1
   126    40    50    1
   127    41    71    1
   128    41    49    1
