@<TRIPOS>MOLECULE
*****
 123 128 0 0 0
SMALL
GASTEIGER

@<TRIPOS>ATOM
     1 C         -2.702171   -0.451478   -3.08485 C.3        1 UNL1     0.0009
     2 C         -3.241784   -2.028425   -3.896696 C.2        1 UNL1     -0.0787
     3 C         -3.121065   -2.994987   -4.967785 C.2        1 UNL1     -0.0649
     4 C         -3.914914   -4.482446   -5.121492 C.2        1 UNL1     -0.0542
     5 C         -3.891555   -5.751347   -5.751115 C.2        1 UNL1     0.0115
     6 C         -3.201782   -6.590614   -6.861595 C.3        1 UNL1     -0.0348
     7 C         -4.768886   -6.943322   -5.129445 C.2        1 UNL1     0.2441
     8 O         -5.838466   -7.299854   -5.604219 O.2        1 UNL1     -0.2702
     9 N         -4.106043   -7.720825   -4.163899 N.am        1 UNL1     -0.2772
     10 C         -4.264622   -7.170515   -2.912766 C.2        1 UNL1     0.1049
     11 C         -3.43594   -6.191436   -2.598264 C.2        1 UNL1     0.0801
     12 C         -5.993549   -6.260796   -1.350538 C.ar        1 UNL1     0.0753
     13 C         -5.146634   -5.116198   -1.204804 C.ar        1 UNL1     0.0305
     14 C         -3.780067   -5.104704   -1.721927 C.2        1 UNL1     0.0924
     15 N         -2.318038   -5.773771   -3.216632 N.pl3        1 UNL1     -0.3170
     16 C         -1.69249   -4.788363   -2.375256 C.3        1 UNL1     0.1275
     17 N         -2.831605   -4.181239   -1.593245 N.2        1 UNL1     -0.2557
     18 C         -0.834909   -5.538745   -1.36077 C.3        1 UNL1     0.0016
     19 C         0.139147   -6.431415   -2.113064 C.3        1 UNL1     0.0026
     20 N         0.961383   -5.599598   -2.98084 N.3        1 UNL1     -0.3018
     21 C         0.22051   -4.791461   -3.951608 C.3        1 UNL1     0.0026
     22 C         -0.74853   -3.899217   -3.173947 C.3        1 UNL1     0.0016
     23 C         2.111179   -6.303668   -3.512723 C.3        1 UNL1     0.0012
     24 C         2.365304   -7.595838   -2.72059 C.3        1 UNL1     -0.0339
     25 C         1.925895   -8.837432   -3.513951 C.3        1 UNL1     -0.0615
     26 C         3.826739   -7.679557   -2.315649 C.3        1 UNL1     -0.0615
     27 C         -7.24992   -6.310018   -0.751182 C.ar        1 UNL1     0.1347
     28 C         -7.749402   -5.29635   0.046968 C.ar        1 UNL1     0.0342
     29 C         -6.918772   -4.159134   0.136165 C.ar        1 UNL1     0.1435
     30 C         -5.67334   -4.080933   -0.488339 C.ar        1 UNL1     0.0774
     31 O         -7.214863   -3.133317   0.963834 O.3        1 UNL1     -0.4436
     32 C         -5.971193   -2.437952   1.138836 C.3        1 UNL1     0.3143
     33 C         -5.141162   -2.798766   -0.076514 C.2        1 UNL1     0.2504
     34 C         -8.969542   -5.38241   0.921013 C.3        1 UNL1     -0.0327
     35 O         -6.251358   -1.035421   1.051274 O.2        1 UNL1     -0.4528
     36 C         -3.677181   0.679346   3.251564 C.3        1 UNL1     0.0854
     37 C         -2.102978   0.617985   3.176465 C.3        1 UNL1     0.0236
     38 C         -1.375596   2.042886   3.065484 C.3        1 UNL1     0.1131
     39 C         -1.844959   3.080624   1.967729 C.3        1 UNL1     0.0200
     40 C         -2.167995   2.575712   0.411082 C.3        1 UNL1     0.0661
     41 C         -1.155565   1.613645   -0.551739 C.3        1 UNL1     0.0091
     42 C         -1.565335   0.370285   -1.836863 C.3        1 UNL1     0.0661
     43 C         -5.453214   -7.430436   -2.086907 C.2        1 UNL1     0.2131
     44 O         -5.878216   -8.563869   -1.954839 O.2        1 UNL1     -0.2851
     45 O         -8.030015   -7.441589   -0.980174 O.3        1 UNL1     -0.5056
     46 O         -4.255183   -2.161117   -0.60025 O.2        1 UNL1     -0.2836
     47 C         -3.244726   0.772615   -3.870479 C.3        1 UNL1     -0.0566
     48 O         -0.595287   0.903232   -2.823823 O.3        1 UNL1     -0.3909
     49 C         -0.08261   1.005896   0.32399 C.3        1 UNL1     -0.0577
     50 O         -3.506245   2.136191   0.294329 O.3        1 UNL1     -0.3910
     51 O         -4.255155   1.947342   3.038107 O.3        1 UNL1     -0.3753
     52 C         -1.606799   -0.632832   2.380088 C.3        1 UNL1     -0.0564
     53 O         0.097529   1.988727   3.347079 O.3        1 UNL1     -0.4608
     54 C         1.057991   2.722497   2.701304 C.2        1 UNL1     0.3042
     55 O         1.186058   3.946189   2.697314 O.2        1 UNL1     -0.2512
     56 C         2.072659   1.882214   1.97944 C.3        1 UNL1     0.0332
     57 C         -2.88797   4.076224   2.659886 C.3        1 UNL1     -0.0567
     58 C         -5.304548   -3.043599   2.395938 C.3        1 UNL1     0.0210
     59 C         -4.795603   2.563976   4.205816 C.3        1 UNL1     0.0372
     60 C         -4.387123   -0.272533   2.354307 C.2        1 UNL1     -0.0208
     61 C         -5.439151   -0.086895   1.555859 C.2        1 UNL1     0.0882
     62 H         -3.416702   -0.645882   -2.275922 H        1 UNL1     0.0365
     63 H         -4.074405   -2.315278   -3.250997 H        1 UNL1     0.0576
     64 H         -2.342658   -2.911119   -5.729464 H        1 UNL1     0.0615
     65 H         -4.713587   -4.429792   -4.376622 H        1 UNL1     0.0622
     66 H         -3.917144   0.363296   4.27654 H        1 UNL1     0.0645
     67 H         -1.798783   0.294403   4.187068 H        1 UNL1     0.0362
     68 H         -1.679269   2.479967   4.02895 H        1 UNL1     0.0741
     69 H         -1.060856   3.811618   1.821993 H        1 UNL1     0.0359
     70 H         -2.150245   3.550392   -0.11308 H        1 UNL1     0.0600
     71 H         -0.58411   2.40229   -1.07941 H        1 UNL1     0.0348
     72 H         -2.464341   0.992632   -1.719444 H        1 UNL1     0.0602
     73 H         -4.00763   -1.25132   2.513083 H        1 UNL1     0.0628
     74 H         -5.8513   0.888647   1.295688 H        1 UNL1     0.1022
     75 H         -3.816114   -6.587257   -7.794128 H        1 UNL1     0.0279
     76 H         -2.238286   -6.229778   -7.2145 H        1 UNL1     0.0279
     77 H         -3.171272   -7.664505   -6.625947 H        1 UNL1     0.0279
     78 H         -3.108611   -7.739881   -4.365993 H        1 UNL1     0.1553
     79 H         -1.805533   -6.329779   -3.876274 H        1 UNL1     0.1484
     80 H         -0.307658   -4.811869   -0.731148 H        1 UNL1     0.0317
     81 H         -1.458141   -6.140272   -0.690398 H        1 UNL1     0.0317
     82 H         -0.383232   -7.20922   -2.689304 H        1 UNL1     0.0428
     83 H         0.739429   -6.958444   -1.370803 H        1 UNL1     0.0428
     84 H         0.854497   -4.117333   -4.535923 H        1 UNL1     0.0428
     85 H         -0.275195   -5.414661   -4.708717 H        1 UNL1     0.0428
     86 H         -1.174513   -3.232297   -3.900407 H        1 UNL1     0.0317
     87 H         -0.189601   -3.228156   -2.510342 H        1 UNL1     0.0317
     88 H         1.896164   -6.569798   -4.555909 H        1 UNL1     0.0429
     89 H         3.002241   -5.662803   -3.52141 H        1 UNL1     0.0429
     90 H         1.796492   -7.560661   -1.783879 H        1 UNL1     0.0308
     91 H         2.44916   -9.734753   -3.170281 H        1 UNL1     0.0233
     92 H         0.848451   -8.993232   -3.422019 H        1 UNL1     0.0233
     93 H         2.130486   -8.74126   -4.587137 H        1 UNL1     0.0233
     94 H         4.250042   -8.641136   -2.625517 H        1 UNL1     0.0233
     95 H         4.39671   -6.886204   -2.807266 H        1 UNL1     0.0233
     96 H         3.947093   -7.581778   -1.233096 H        1 UNL1     0.0233
     97 H         -8.738014   -5.188631   1.964121 H        1 UNL1     0.0280
     98 H         -9.732481   -4.644544   0.640417 H        1 UNL1     0.0280
     99 H         -9.406958   -6.391422   0.845803 H        1 UNL1     0.0280
     100 H         -8.125591   -7.674287   -1.887003 H        1 UNL1     0.2922
     101 H         -2.520723   1.074157   -4.627148 H        1 UNL1     0.0236
     102 H         -3.532268   1.602518   -3.225836 H        1 UNL1     0.0236
     103 H         -4.157946   0.528506   -4.438487 H        1 UNL1     0.0236
     104 H         -0.609084   1.877881   -2.754263 H        1 UNL1     0.2098
     105 H         0.895525   1.469405   0.222877 H        1 UNL1     0.0234
     106 H         -0.350895   0.915636   1.376512 H        1 UNL1     0.0234
     107 H         0.0   -0.0   0.0 H        1 UNL1     0.0234
     108 H         -3.578666   1.647598   -0.548167 H        1 UNL1     0.2098
     109 H         -1.928158   -1.575759   2.844122 H        1 UNL1     0.0234
     110 H         -1.909371   -0.620691   1.327451 H        1 UNL1     0.0234
     111 H         -0.510305   -0.679162   2.341373 H        1 UNL1     0.0234
     112 H         1.657936   1.532438   1.029173 H        1 UNL1     0.0342
     113 H         3.009726   2.414838   1.824329 H        1 UNL1     0.0342
     114 H         2.289571   0.999971   2.597309 H        1 UNL1     0.0342
     115 H         -2.826884   5.089156   2.238666 H        1 UNL1     0.0234
     116 H         -3.927809   3.75181   2.585446 H        1 UNL1     0.0234
     117 H         -2.668201   4.27398   3.723152 H        1 UNL1     0.0234
     118 H         -5.291026   -2.333227   3.241039 H        1 UNL1     0.0309
     119 H         -5.771321   -3.97866   2.721493 H        1 UNL1     0.0309
     120 H         -4.244375   -3.27184   2.24087 H        1 UNL1     0.0309
     121 H         -5.646515   1.965849   4.530699 H        1 UNL1     0.0524
     122 H         -4.072051   2.59117   5.037544 H        1 UNL1     0.0524
     123 H         -5.113951   3.578231   3.98213 H        1 UNL1     0.0524
@<TRIPOS>BOND
     1     1     2    1
     2     1    42    1
     3     2     3    2
     4     3     4    1
     5     4     5    2
     6     5     7    1
     7     6    75    1
     8     6    76    1
     9     6    77    1
    10     7     9   am
    11     9    10    1
    12    10    11    2
    13    10    43    1
    14    11    14    1
    15    11    15    1
    16    12    13   ar
    17    12    27   ar
    18    12    43    1
    19    13    14    1
    20    13    30   ar
    21    14    17    2
    22    15    16    1
    23    16    17    1
    24    16    18    1
    25    16    22    1
    26    18    19    1
    27    19    20    1
    28    20    21    1
    29    21    22    1
    30    23    24    1
    31    23    88    1
    32    23    89    1
    33    24    25    1
    34    24    26    1
    35    24    90    1
    36    25    91    1
    37    25    92    1
    38    25    93    1
    39    26    94    1
    40    26    95    1
    41    26    96    1
    42    27    28   ar
    43    28    29   ar
    44    29    30   ar
    45    29    31    1
    46    30    33    1
    47    31    32    1
    48    32    33    1
    49    32    35    1
    50    34    97    1
    51    34    98    1
    52    34    99    1
    53    35    61    1
    54    36    37    1
    55    36    60    1
    56    37    38    1
    57    38    39    1
    58    39    40    1
    59    40    41    1
    60    41    42    1
    61    45   100    1
    62    47   101    1
    63    47   102    1
    64    47   103    1
    65    48   104    1
    66    49   105    1
    67    49   106    1
    68    49   107    1
    69    50   108    1
    70    51    59    1
    71    52   109    1
    72    52   110    1
    73    52   111    1
    74    53    54    1
    75    54    55    2
    76    54    56    1
    77    56   112    1
    78    56   113    1
    79    56   114    1
    80    57   115    1
    81    57   116    1
    82    57   117    1
    83    58   118    1
    84    58   119    1
    85    58   120    1
    86    59   121    1
    87    59   122    1
    88    59   123    1
    89    60    61    2
    90     1    47    1
    91     1    62    1
    92     2    63    1
    93     3    64    1
    94     4    65    1
    95     5     6    1
    96     7     8    2
    97     9    78    1
    98    15    79    1
    99    18    80    1
   100    18    81    1
   101    19    82    1
   102    19    83    1
   103    20    23    1
   104    21    84    1
   105    21    85    1
   106    22    86    1
   107    22    87    1
   108    27    45    1
   109    28    34    1
   110    32    58    1
   111    33    46    2
   112    36    51    1
   113    36    66    1
   114    37    52    1
   115    37    67    1
   116    38    53    1
   117    38    68    1
   118    42    48    1
   119    42    72    1
   120    43    44    2
   121    60    73    1
   122    61    74    1
   123    39    69    1
   124    39    57    1
   125    40    70    1
   126    40    50    1
   127    41    71    1
   128    41    49    1
