@<TRIPOS>MOLECULE
*****
 123 128 0 0 0
SMALL
GASTEIGER

@<TRIPOS>ATOM
     1 C         5.167951   1.747812   0.486526 C.3        1 UNL1     0.0009
     2 C         6.604153   2.553252   -0.365313 C.2        1 UNL1     -0.0787
     3 C         7.885484   2.454506   -1.032009 C.2        1 UNL1     -0.0649
     4 C         8.762619   3.689126   -1.788782 C.2        1 UNL1     -0.0542
     5 C         9.781972   3.981162   -2.728309 C.2        1 UNL1     0.0115
     6 C         10.909347   3.355113   -3.594573 C.3        1 UNL1     -0.0348
     7 C         9.877171   5.464153   -3.335487 C.2        1 UNL1     0.2441
     8 O         10.701538   6.285764   -2.958792 O.2        1 UNL1     -0.2702
     9 N         9.126076   5.670819   -4.505656 N.am        1 UNL1     -0.2772
     10 C         7.843696   6.057919   -4.191047 C.2        1 UNL1     0.1049
     11 C         6.997919   5.086816   -3.898057 C.2        1 UNL1     0.0801
     12 C         6.54678   7.665434   -2.779935 C.ar        1 UNL1     0.0753
     13 C         5.787818   6.537872   -2.331394 C.ar        1 UNL1     0.0305
     14 C         5.903944   5.231884   -2.976346 C.2        1 UNL1     0.0924
     15 N         7.120112   3.757746   -4.056707 N.pl3        1 UNL1     -0.3170
     16 C         5.850363   3.158992   -3.74129 C.3        1 UNL1     0.1275
     17 N         5.214952   4.114766   -2.761254 N.2        1 UNL1     -0.2557
     18 C         4.996534   3.217748   -5.004313 C.3        1 UNL1     0.0016
     19 C         5.750371   2.533029   -6.133242 C.3        1 UNL1     0.0026
     20 N         6.020503   1.155022   -5.74704 N.3        1 UNL1     -0.3018
     21 C         6.784799   0.994953   -4.50825 C.3        1 UNL1     0.0026
     22 C         6.007093   1.686102   -3.38692 C.3        1 UNL1     0.0016
     23 C         6.46395   0.334935   -6.85675 C.3        1 UNL1     0.0012
     24 C         5.307675   0.085327   -7.837811 C.3        1 UNL1     -0.0339
     25 C         5.382554   1.031235   -9.04765 C.3        1 UNL1     -0.0615
     26 C         5.294316   -1.371458   -8.267205 C.3        1 UNL1     -0.0615
     27 C         6.342833   8.933392   -2.24067 C.ar        1 UNL1     0.1347
     28 C         5.384593   9.203547   -1.280024 C.ar        1 UNL1     0.0342
     29 C         4.683136   8.069443   -0.818579 C.ar        1 UNL1     0.1435
     30 C         4.901888   6.787161   -1.323675 C.ar        1 UNL1     0.0774
     31 O         3.642844   8.183593   0.035686 O.3        1 UNL1     -0.4436
     32 C         2.920774   6.95088   -0.105404 C.3        1 UNL1     0.3143
     33 C         3.933424   5.957327   -0.63795 C.2        1 UNL1     0.2504
     34 C         4.938414   10.569932   -0.83955 C.3        1 UNL1     -0.0327
     35 O         2.561079   6.514798   1.211298 O.2        1 UNL1     -0.4528
     36 C         -0.68272   4.583191   0.817923 C.3        1 UNL1     0.0854
     37 C         -0.989025   3.322309   -0.07867 C.3        1 UNL1     0.0236
     38 C         -1.589243   2.061725   0.71026 C.3        1 UNL1     0.1131
     39 C         -0.862572   1.531159   2.011306 C.3        1 UNL1     0.0200
     40 C         0.798619   1.385251   2.051214 C.3        1 UNL1     0.0661
     41 C         1.756883   0.615722   0.881956 C.3        1 UNL1     0.0091
     42 C         3.464104   0.977657   0.316445 C.3        1 UNL1     0.0661
     43 C         7.495883   7.457053   -3.901559 C.2        1 UNL1     0.2131
     44 O         7.8954   8.354743   -4.620778 O.2        1 UNL1     -0.2851
     45 O         7.154972   9.968124   -2.700234 O.3        1 UNL1     -0.5056
     46 O         3.949242   4.753843   -0.506688 O.2        1 UNL1     -0.2836
     47 C         5.56536   1.31884   1.924591 C.3        1 UNL1     -0.0566
     48 O         3.91241   -0.433517   0.398459 O.3        1 UNL1     -0.3909
     49 C         0.921655   0.382808   -0.357253 C.3        1 UNL1     -0.0577
     50 O         1.399409   2.603139   2.443035 O.3        1 UNL1     -0.3910
     51 O         -0.805743   4.394123   2.209523 O.3        1 UNL1     -0.3753
     52 C         0.054473   3.161119   -1.231959 C.3        1 UNL1     -0.0564
     53 O         -2.192802   1.022505   -0.188664 O.3        1 UNL1     -0.4608
     54 C         -2.427241   -0.284051   0.151747 C.2        1 UNL1     0.3042
     55 O         -1.857701   -1.283392   -0.285036 O.2        1 UNL1     -0.2512
     56 C         -3.467946   -0.449123   1.222447 C.3        1 UNL1     0.0332
     57 C         -1.582439   2.200845   3.272847 C.3        1 UNL1     -0.0567
     58 C         1.844769   7.195765   -1.188813 C.3        1 UNL1     0.0210
     59 C         -1.118077   5.573511   2.94936 C.3        1 UNL1     0.0372
     60 C         0.646236   5.211871   0.585981 C.2        1 UNL1     -0.0208
     61 C         1.559966   5.647258   1.454474 C.2        1 UNL1     0.0882
     62 H         4.692328   2.732131   0.573761 H        1 UNL1     0.0365
     63 H         6.338233   3.607157   -0.260238 H        1 UNL1     0.0576
     64 H         8.342738   1.487457   -1.253016 H        1 UNL1     0.0615
     65 H         8.276026   4.604781   -1.441959 H        1 UNL1     0.0622
     66 H         -1.427446   5.32976   0.507983 H        1 UNL1     0.0645
     67 H         -1.854992   3.631618   -0.689399 H        1 UNL1     0.0362
     68 H         -2.535929   2.498969   1.062573 H        1 UNL1     0.0741
     69 H         -1.194172   0.520221   2.207401 H        1 UNL1     0.0359
     70 H         0.910949   0.725267   2.932613 H        1 UNL1     0.0600
     71 H         1.800572   -0.405273   1.309295 H        1 UNL1     0.0348
     72 H         3.359123   1.466301   1.295997 H        1 UNL1     0.0602
     73 H         0.763344   5.408654   -0.45075 H        1 UNL1     0.0628
     74 H         1.543232   5.437052   2.524413 H        1 UNL1     0.1022
     75 H         10.935064   2.246493   -3.462913 H        1 UNL1     0.0279
     76 H         10.80831   3.460734   -4.672397 H        1 UNL1     0.0279
     77 H         11.915555   3.637538   -3.251817 H        1 UNL1     0.0279
     78 H         9.063451   4.800662   -5.030043 H        1 UNL1     0.1553
     79 H         7.784785   3.329338   -4.674452 H        1 UNL1     0.1484
     80 H         4.035296   2.727121   -4.809195 H        1 UNL1     0.0317
     81 H         4.769949   4.254439   -5.275575 H        1 UNL1     0.0317
     82 H         6.680958   3.064009   -6.382203 H        1 UNL1     0.0428
     83 H         5.124514   2.587938   -7.024498 H        1 UNL1     0.0428
     84 H         6.905125   -0.047895   -4.198733 H        1 UNL1     0.0428
     85 H         7.814893   1.362701   -4.613055 H        1 UNL1     0.0428
     86 H         6.52419   1.436006   -2.479148 H        1 UNL1     0.0317
     87 H         5.027638   1.208747   -3.260837 H        1 UNL1     0.0317
     88 H         7.259714   0.876321   -7.384913 H        1 UNL1     0.0429
     89 H         6.896607   -0.610788   -6.505768 H        1 UNL1     0.0429
     90 H         4.355441   0.254025   -7.321086 H        1 UNL1     0.0308
     91 H         6.337128   0.930529   -9.572767 H        1 UNL1     0.0233
     92 H         4.566348   0.830918   -9.745712 H        1 UNL1     0.0233
     93 H         5.287283   2.085325   -8.760157 H        1 UNL1     0.0233
     94 H         4.601522   -1.512268   -9.103892 H        1 UNL1     0.0233
     95 H         6.291492   -1.671757   -8.601005 H        1 UNL1     0.0233
     96 H         4.98429   -2.02614   -7.44791 H        1 UNL1     0.0233
     97 H         4.139362   10.520787   -0.10584 H        1 UNL1     0.0280
     98 H         5.749259   11.136509   -0.363339 H        1 UNL1     0.0280
     99 H         4.572974   11.137553   -1.71096 H        1 UNL1     0.0280
     100 H         6.687868   10.719229   -3.021604 H        1 UNL1     0.2922
     101 H         4.699718   0.897037   2.434886 H        1 UNL1     0.0236
     102 H         6.027885   2.120946   2.498769 H        1 UNL1     0.0236
     103 H         6.312244   0.507448   1.923214 H        1 UNL1     0.0236
     104 H         4.32724   -0.560799   1.274065 H        1 UNL1     0.2098
     105 H         0.708752   1.281441   -0.930789 H        1 UNL1     0.0234
     106 H         1.290332   -0.405582   -1.013335 H        1 UNL1     0.0234
     107 H         0.0   -0.0   0.0 H        1 UNL1     0.0234
     108 H         1.215468   3.256465   1.740825 H        1 UNL1     0.2098
     109 H         1.08104   3.059963   -0.852962 H        1 UNL1     0.0234
     110 H         -0.172039   2.326167   -1.903741 H        1 UNL1     0.0234
     111 H         0.066546   4.038414   -1.892378 H        1 UNL1     0.0234
     112 H         -3.591335   -1.509855   1.46113 H        1 UNL1     0.0342
     113 H         -3.231705   0.127409   2.115557 H        1 UNL1     0.0342
     114 H         -4.42516   -0.078545   0.830559 H        1 UNL1     0.0342
     115 H         -2.652089   1.952832   3.311924 H        1 UNL1     0.0234
     116 H         -1.145269   1.921402   4.233495 H        1 UNL1     0.0234
     117 H         -1.620825   3.302689   3.223771 H        1 UNL1     0.0234
     118 H         0.943517   7.681647   -0.775692 H        1 UNL1     0.0309
     119 H         2.213162   7.784595   -2.034844 H        1 UNL1     0.0309
     120 H         1.456746   6.263746   -1.614119 H        1 UNL1     0.0309
     121 H         -0.279969   6.261579   2.842156 H        1 UNL1     0.0524
     122 H         -2.017169   6.082976   2.564503 H        1 UNL1     0.0524
     123 H         -1.271808   5.330374   3.996903 H        1 UNL1     0.0524
@<TRIPOS>BOND
     1     1     2    1
     2     1    42    1
     3     2     3    2
     4     3     4    1
     5     4     5    2
     6     5     7    1
     7     6    75    1
     8     6    76    1
     9     6    77    1
    10     7     9   am
    11     9    10    1
    12    10    11    2
    13    10    43    1
    14    11    14    1
    15    11    15    1
    16    12    13   ar
    17    12    27   ar
    18    12    43    1
    19    13    14    1
    20    13    30   ar
    21    14    17    2
    22    15    16    1
    23    16    17    1
    24    16    18    1
    25    16    22    1
    26    18    19    1
    27    19    20    1
    28    20    21    1
    29    21    22    1
    30    23    24    1
    31    23    88    1
    32    23    89    1
    33    24    25    1
    34    24    26    1
    35    24    90    1
    36    25    91    1
    37    25    92    1
    38    25    93    1
    39    26    94    1
    40    26    95    1
    41    26    96    1
    42    27    28   ar
    43    28    29   ar
    44    29    30   ar
    45    29    31    1
    46    30    33    1
    47    31    32    1
    48    32    33    1
    49    32    35    1
    50    34    97    1
    51    34    98    1
    52    34    99    1
    53    35    61    1
    54    36    37    1
    55    36    60    1
    56    37    38    1
    57    38    39    1
    58    39    40    1
    59    40    41    1
    60    41    42    1
    61    45   100    1
    62    47   101    1
    63    47   102    1
    64    47   103    1
    65    48   104    1
    66    49   105    1
    67    49   106    1
    68    49   107    1
    69    50   108    1
    70    51    59    1
    71    52   109    1
    72    52   110    1
    73    52   111    1
    74    53    54    1
    75    54    55    2
    76    54    56    1
    77    56   112    1
    78    56   113    1
    79    56   114    1
    80    57   115    1
    81    57   116    1
    82    57   117    1
    83    58   118    1
    84    58   119    1
    85    58   120    1
    86    59   121    1
    87    59   122    1
    88    59   123    1
    89    60    61    2
    90     1    47    1
    91     1    62    1
    92     2    63    1
    93     3    64    1
    94     4    65    1
    95     5     6    1
    96     7     8    2
    97     9    78    1
    98    15    79    1
    99    18    80    1
   100    18    81    1
   101    19    82    1
   102    19    83    1
   103    20    23    1
   104    21    84    1
   105    21    85    1
   106    22    86    1
   107    22    87    1
   108    27    45    1
   109    28    34    1
   110    32    58    1
   111    33    46    2
   112    36    51    1
   113    36    66    1
   114    37    52    1
   115    37    67    1
   116    38    53    1
   117    38    68    1
   118    42    48    1
   119    42    72    1
   120    43    44    2
   121    60    73    1
   122    61    74    1
   123    39    69    1
   124    39    57    1
   125    40    70    1
   126    40    50    1
   127    41    71    1
   128    41    49    1
