@<TRIPOS>MOLECULE
*****
 123 128 0 0 0
SMALL
GASTEIGER

@<TRIPOS>ATOM
     1 C         -4.227093   3.099132   -1.340164 C.3        1 UNL1     0.0009
     2 C         -4.954895   4.80403   -1.31436 C.2        1 UNL1     -0.0787
     3 C         -5.784012   5.806319   -0.678728 C.2        1 UNL1     -0.0649
     4 C         -5.995539   7.423191   -1.13407 C.2        1 UNL1     -0.0542
     5 C         -6.405409   8.707736   -0.699295 C.2        1 UNL1     0.0115
     6 C         -7.097057   9.481743   0.456499 C.3        1 UNL1     -0.0348
     7 C         -5.961473   9.994303   -1.550561 C.2        1 UNL1     0.2441
     8 O         -6.715905   10.578218   -2.31633 O.2        1 UNL1     -0.2702
     9 N         -4.734779   10.561694   -1.163986 N.am        1 UNL1     -0.2772
     10 C         -3.694968   9.961159   -1.835903 C.2        1 UNL1     0.1049
     11 C         -3.253976   8.824097   -1.32911 C.2        1 UNL1     0.0801
     12 C         -2.940642   9.279628   -4.121476 C.ar        1 UNL1     0.0753
     13 C         -2.672968   7.989293   -3.562912 C.ar        1 UNL1     0.0305
     14 C         -2.697535   7.760053   -2.120034 C.2        1 UNL1     0.0924
     15 N         -3.510685   8.25084   -0.140832 N.pl3        1 UNL1     -0.3170
     16 C         -2.647542   7.107217   -0.009064 C.3        1 UNL1     0.1275
     17 N         -2.382135   6.668597   -1.428534 N.2        1 UNL1     -0.2557
     18 C         -1.313411   7.608049   0.53588 C.3        1 UNL1     0.0016
     19 C         -1.568461   8.355115   1.835277 C.3        1 UNL1     0.0026
     20 N         -2.21231   7.4496   2.776834 N.3        1 UNL1     -0.3018
     21 C         -3.474175   6.867174   2.315484 C.3        1 UNL1     0.0026
     22 C         -3.193733   6.11774   1.011799 C.3        1 UNL1     0.0016
     23 C         -2.227978   7.962984   4.132132 C.3        1 UNL1     0.0012
     24 C         -1.499386   6.999018   5.081701 C.3        1 UNL1     -0.0339
     25 C         -0.281115   7.669486   5.737708 C.3        1 UNL1     -0.0615
     26 C         -2.467624   6.460132   6.120401 C.3        1 UNL1     -0.0615
     27 C         -2.797348   9.519227   -5.486092 C.ar        1 UNL1     0.1347
     28 C         -2.356249   8.561513   -6.381785 C.ar        1 UNL1     0.0342
     29 C         -2.145775   7.285572   -5.817127 C.ar        1 UNL1     0.1435
     30 C         -2.320059   7.021461   -4.45805 C.ar        1 UNL1     0.0774
     31 O         -1.610442   6.275761   -6.537341 O.3        1 UNL1     -0.4436
     32 C         -1.122236   5.349168   -5.55553 C.3        1 UNL1     0.3143
     33 C         -1.928387   5.635858   -4.304873 C.2        1 UNL1     0.2504
     34 C         -1.939753   8.810425   -7.804696 C.3        1 UNL1     -0.0327
     35 O         -1.485161   4.033966   -5.993456 O.2        1 UNL1     -0.4528
     36 C         1.202342   1.712384   -4.653428 C.3        1 UNL1     0.0854
     37 C         1.669387   1.483495   -3.164468 C.3        1 UNL1     0.0236
     38 C         1.620144   -0.040388   -2.667379 C.3        1 UNL1     0.1131
     39 C         0.300457   -0.889284   -2.867558 C.3        1 UNL1     0.0200
     40 C         -1.192071   -0.220891   -2.538854 C.3        1 UNL1     0.0661
     41 C         -1.621257   0.60231   -1.119083 C.3        1 UNL1     0.0091
     42 C         -2.791224   1.99058   -0.855857 C.3        1 UNL1     0.0661
     43 C         -3.2896   10.378   -3.18656 C.2        1 UNL1     0.2131
     44 O         -3.158   11.558249   -3.455691 O.2        1 UNL1     -0.2851
     45 O         -3.121938   10.790363   -5.955446 O.3        1 UNL1     -0.5056
     46 O         -2.204136   4.883588   -3.39718 O.2        1 UNL1     -0.2836
     47 C         -5.305218   2.058641   -1.746371 C.3        1 UNL1     -0.0566
     48 O         -3.456655   1.358879   0.309163 O.3        1 UNL1     -0.3909
     49 C         -0.363176   0.933227   -0.347579 C.3        1 UNL1     -0.0577
     50 O         -1.691883   0.468517   -3.666963 O.3        1 UNL1     -0.3910
     51 O         0.639936   0.593851   -5.301515 O.3        1 UNL1     -0.3753
     52 C         1.260478   2.67402   -2.236894 C.3        1 UNL1     -0.0564
     53 O         2.384841   -0.283395   -1.399107 O.3        1 UNL1     -0.4608
     54 C         3.634491   0.20391   -1.118325 C.2        1 UNL1     0.3042
     55 O         4.710603   -0.205303   -1.552336 O.2        1 UNL1     -0.2512
     56 C         3.622758   1.406592   -0.21825 C.3        1 UNL1     0.0332
     57 C         0.462535   -1.719909   -4.224749 C.3        1 UNL1     -0.0567
     58 C         0.354641   5.726263   -5.294451 C.3        1 UNL1     0.0210
     59 C         1.485447   -0.025908   -6.269438 C.3        1 UNL1     0.0372
     60 C         0.254269   2.843015   -4.848342 C.2        1 UNL1     -0.0208
     61 C         -0.8684   2.916078   -5.564597 C.2        1 UNL1     0.0882
     62 H         -3.686985   3.364344   -2.257038 H        1 UNL1     0.0365
     63 H         -4.594316   5.193783   -2.268585 H        1 UNL1     0.0576
     64 H         -6.243855   5.634003   0.296956 H        1 UNL1     0.0615
     65 H         -5.576395   7.466777   -2.142981 H        1 UNL1     0.0622
     66 H         2.119558   1.992265   -5.190482 H        1 UNL1     0.0645
     67 H         2.757026   1.670012   -3.192986 H        1 UNL1     0.0362
     68 H         2.358104   -0.481914   -3.354395 H        1 UNL1     0.0741
     69 H         0.330462   -1.741464   -2.201751 H        1 UNL1     0.0359
     70 H         -1.804886   -1.140891   -2.483021 H        1 UNL1     0.0600
     71 H         -2.026493   -0.238762   -0.522979 H        1 UNL1     0.0348
     72 H         -3.066828   1.540517   -1.820638 H        1 UNL1     0.0602
     73 H         0.660416   3.719334   -4.40748 H        1 UNL1     0.0628
     74 H         -1.379623   2.056429   -5.999214 H        1 UNL1     0.1022
     75 H         -6.674969   9.172549   1.443047 H        1 UNL1     0.0279
     76 H         -6.957565   10.56037   0.469706 H        1 UNL1     0.0279
     77 H         -8.155352   9.208018   0.578096 H        1 UNL1     0.0279
     78 H         -4.58556   10.408497   -0.168827 H        1 UNL1     0.1553
     79 H         -3.879338   8.747688   0.649212 H        1 UNL1     0.1484
     80 H         -0.646227   6.7515   0.690656 H        1 UNL1     0.0317
     81 H         -0.817489   8.265107   -0.186606 H        1 UNL1     0.0317
     82 H         -2.17744   9.256758   1.673734 H        1 UNL1     0.0428
     83 H         -0.604394   8.705088   2.205606 H        1 UNL1     0.0428
     84 H         -3.895936   6.130715   3.00654 H        1 UNL1     0.0428
     85 H         -4.263462   7.625539   2.219424 H        1 UNL1     0.0428
     86 H         -4.103176   5.596968   0.775797 H        1 UNL1     0.0317
     87 H         -2.476772   5.307471   1.192153 H        1 UNL1     0.0317
     88 H         -1.700211   8.925643   4.138816 H        1 UNL1     0.0429
     89 H         -3.25313   8.155861   4.473654 H        1 UNL1     0.0429
     90 H         -1.15422   6.12729   4.513226 H        1 UNL1     0.0308
     91 H         -0.542416   8.110701   6.704224 H        1 UNL1     0.0233
     92 H         0.527053   6.948123   5.879516 H        1 UNL1     0.0233
     93 H         0.133781   8.476284   5.12145 H        1 UNL1     0.0233
     94 H         -2.506402   7.131649   6.984922 H        1 UNL1     0.0233
     95 H         -3.473804   6.397859   5.696507 H        1 UNL1     0.0233
     96 H         -2.168667   5.467046   6.467348 H        1 UNL1     0.0233
     97 H         -1.850734   7.887846   -8.370518 H        1 UNL1     0.0280
     98 H         -2.668405   9.426699   -8.347401 H        1 UNL1     0.0280
     99 H         -0.962639   9.320453   -7.819379 H        1 UNL1     0.0280
     100 H         -2.804583   11.497595   -5.421844 H        1 UNL1     0.2922
     101 H         -5.958792   2.484418   -2.507431 H        1 UNL1     0.0236
     102 H         -5.865824   1.668589   -0.897511 H        1 UNL1     0.0236
     103 H         -4.862586   1.168483   -2.223748 H        1 UNL1     0.0236
     104 H         -4.421293   1.410318   0.161521 H        1 UNL1     0.2098
     105 H         0.420683   1.394358   -0.943175 H        1 UNL1     0.0234
     106 H         -0.526586   1.502318   0.567495 H        1 UNL1     0.0234
     107 H         0.0   0.0   0.0 H        1 UNL1     0.0234
     108 H         -0.976295   0.495427   -4.331025 H        1 UNL1     0.2098
     109 H         1.000495   3.576133   -2.808131 H        1 UNL1     0.0234
     110 H         0.4422   2.425118   -1.552634 H        1 UNL1     0.0234
     111 H         2.082813   2.969965   -1.571967 H        1 UNL1     0.0234
     112 H         2.63268   1.524421   0.232534 H        1 UNL1     0.0342
     113 H         4.396357   1.353487   0.54632 H        1 UNL1     0.0342
     114 H         3.821534   2.296171   -0.831684 H        1 UNL1     0.0342
     115 H         1.514844   -1.953697   -4.437294 H        1 UNL1     0.0234
     116 H         -0.092029   -2.66029   -4.238624 H        1 UNL1     0.0234
     117 H         0.185041   -1.147556   -5.126609 H        1 UNL1     0.0234
     118 H         0.470264   6.792712   -5.033063 H        1 UNL1     0.0309
     119 H         0.823425   5.114193   -4.517397 H        1 UNL1     0.0309
     120 H         0.980765   5.615558   -6.186539 H        1 UNL1     0.0309
     121 H         1.820544   0.748683   -6.958695 H        1 UNL1     0.0524
     122 H         2.383216   -0.475869   -5.813824 H        1 UNL1     0.0524
     123 H         0.939544   -0.795752   -6.807418 H        1 UNL1     0.0524
@<TRIPOS>BOND
     1     1     2    1
     2     1    42    1
     3     2     3    2
     4     3     4    1
     5     4     5    2
     6     5     7    1
     7     6    75    1
     8     6    76    1
     9     6    77    1
    10     7     9   am
    11     9    10    1
    12    10    11    2
    13    10    43    1
    14    11    14    1
    15    11    15    1
    16    12    13   ar
    17    12    27   ar
    18    12    43    1
    19    13    14    1
    20    13    30   ar
    21    14    17    2
    22    15    16    1
    23    16    17    1
    24    16    18    1
    25    16    22    1
    26    18    19    1
    27    19    20    1
    28    20    21    1
    29    21    22    1
    30    23    24    1
    31    23    88    1
    32    23    89    1
    33    24    25    1
    34    24    26    1
    35    24    90    1
    36    25    91    1
    37    25    92    1
    38    25    93    1
    39    26    94    1
    40    26    95    1
    41    26    96    1
    42    27    28   ar
    43    28    29   ar
    44    29    30   ar
    45    29    31    1
    46    30    33    1
    47    31    32    1
    48    32    33    1
    49    32    35    1
    50    34    97    1
    51    34    98    1
    52    34    99    1
    53    35    61    1
    54    36    37    1
    55    36    60    1
    56    37    38    1
    57    38    39    1
    58    39    40    1
    59    40    41    1
    60    41    42    1
    61    45   100    1
    62    47   101    1
    63    47   102    1
    64    47   103    1
    65    48   104    1
    66    49   105    1
    67    49   106    1
    68    49   107    1
    69    50   108    1
    70    51    59    1
    71    52   109    1
    72    52   110    1
    73    52   111    1
    74    53    54    1
    75    54    55    2
    76    54    56    1
    77    56   112    1
    78    56   113    1
    79    56   114    1
    80    57   115    1
    81    57   116    1
    82    57   117    1
    83    58   118    1
    84    58   119    1
    85    58   120    1
    86    59   121    1
    87    59   122    1
    88    59   123    1
    89    60    61    2
    90     1    47    1
    91     1    62    1
    92     2    63    1
    93     3    64    1
    94     4    65    1
    95     5     6    1
    96     7     8    2
    97     9    78    1
    98    15    79    1
    99    18    80    1
   100    18    81    1
   101    19    82    1
   102    19    83    1
   103    20    23    1
   104    21    84    1
   105    21    85    1
   106    22    86    1
   107    22    87    1
   108    27    45    1
   109    28    34    1
   110    32    58    1
   111    33    46    2
   112    36    51    1
   113    36    66    1
   114    37    52    1
   115    37    67    1
   116    38    53    1
   117    38    68    1
   118    42    48    1
   119    42    72    1
   120    43    44    2
   121    60    73    1
   122    61    74    1
   123    39    69    1
   124    39    57    1
   125    40    70    1
   126    40    50    1
   127    41    71    1
   128    41    49    1
