@<TRIPOS>MOLECULE
*****
 123 128 0 0 0
SMALL
GASTEIGER

@<TRIPOS>ATOM
     1 C         4.043918   0.540381   3.656027 C.3        1 UNL1     0.0009
     2 C         5.76838   0.043187   4.120856 C.2        1 UNL1     -0.0787
     3 C         6.672803   -0.754853   4.921604 C.2        1 UNL1     -0.0649
     4 C         8.357405   -0.863234   4.792274 C.2        1 UNL1     -0.0542
     5 C         9.497906   -1.643968   5.103383 C.2        1 UNL1     0.0115
     6 C         9.999535   -2.865102   5.922238 C.3        1 UNL1     -0.0348
     7 C         10.862318   -1.380815   4.299568 C.2        1 UNL1     0.2441
     8 O         11.800968   -0.752678   4.769577 O.2        1 UNL1     -0.2702
     9 N         11.009426   -2.138832   3.124868 N.am        1 UNL1     -0.2772
     10 C         10.444251   -1.482326   2.055803 C.2        1 UNL1     0.1049
     11 C         9.139876   -1.626734   1.907565 C.2        1 UNL1     0.0801
     12 C         10.367852   0.738363   0.906874 C.ar        1 UNL1     0.0753
     13 C         8.941745   0.628393   0.959154 C.ar        1 UNL1     0.0305
     14 C         8.284044   -0.618649   1.343038 C.2        1 UNL1     0.0924
     15 N         8.291744   -2.480471   2.506174 N.pl3        1 UNL1     -0.3170
     16 C         7.009635   -2.346727   1.866984 C.3        1 UNL1     0.1275
     17 N         6.990653   -0.92849   1.351266 N.2        1 UNL1     -0.2557
     18 C         7.023048   -3.245475   0.634192 C.3        1 UNL1     0.0016
     19 C         7.363106   -4.662172   1.06884 C.3        1 UNL1     0.0026
     20 N         6.365559   -5.108237   2.031625 N.3        1 UNL1     -0.3018
     21 C         6.235262   -4.270162   3.225368 C.3        1 UNL1     0.0026
     22 C         5.889012   -2.852899   2.765617 C.3        1 UNL1     0.0016
     23 C         6.421344   -6.534798   2.281537 C.3        1 UNL1     0.0012
     24 C         7.433566   -6.847406   3.394837 C.3        1 UNL1     -0.0339
     25 C         6.730407   -7.10975   4.736776 C.3        1 UNL1     -0.0615
     26 C         8.312455   -8.01677   2.986277 C.3        1 UNL1     -0.0615
     27 C         10.985759   1.889888   0.424899 C.ar        1 UNL1     0.1347
     28 C         10.285394   2.97671   -0.067398 C.ar        1 UNL1     0.0342
     29 C         8.882744   2.865597   0.039329 C.ar        1 UNL1     0.1435
     30 C         8.250371   1.73287   0.553386 C.ar        1 UNL1     0.0774
     31 O         8.059517   3.793057   -0.496508 O.3        1 UNL1     -0.4436
     32 C         6.791902   3.129262   -0.612273 C.3        1 UNL1     0.3143
     33 C         6.836503   2.009477   0.40768 C.2        1 UNL1     0.2504
     34 C         10.872698   4.133407   -0.827151 C.3        1 UNL1     -0.0327
     35 O         5.786432   4.051887   -0.175188 O.2        1 UNL1     -0.4528
     36 C         2.652252   3.178725   -2.130333 C.3        1 UNL1     0.0854
     37 C         1.877146   1.807435   -2.20968 C.3        1 UNL1     0.0236
     38 C         0.320478   1.888187   -1.832841 C.3        1 UNL1     0.1131
     39 C         -0.126081   2.587813   -0.486224 C.3        1 UNL1     0.0200
     40 C         0.704284   2.299421   0.931437 C.3        1 UNL1     0.0661
     41 C         1.1139   0.774055   1.550375 C.3        1 UNL1     0.0091
     42 C         2.563841   0.24161   2.540111 C.3        1 UNL1     0.0661
     43 C         11.166917   -0.448963   1.299319 C.2        1 UNL1     0.2131
     44 O         12.316736   -0.633905   0.943722 O.2        1 UNL1     -0.2851
     45 O         12.37819   1.933705   0.450442 O.3        1 UNL1     -0.5056
     46 O         5.914125   1.480127   0.986354 O.2        1 UNL1     -0.2836
     47 C         3.433399   1.456737   4.750348 C.3        1 UNL1     -0.0566
     48 O         1.754742   -0.502446   3.535528 O.3        1 UNL1     -0.3909
     49 C         0.915145   -0.26184   0.466442 C.3        1 UNL1     -0.0577
     50 O         1.800271   3.182767   1.058862 O.3        1 UNL1     -0.3910
     51 O         1.936538   4.259789   -1.576722 O.3        1 UNL1     -0.3753
     52 C         2.776481   0.604716   -1.774235 C.3        1 UNL1     -0.0564
     53 O         -0.461378   0.675982   -2.24707 O.3        1 UNL1     -0.4608
     54 C         -1.484774   0.108085   -1.534271 C.2        1 UNL1     0.3042
     55 O         -2.55668   -0.309861   -1.970365 O.2        1 UNL1     -0.2512
     56 C         -1.185095   -0.045628   -0.070277 C.3        1 UNL1     0.0332
     57 C         -0.505964   4.102383   -0.832549 C.3        1 UNL1     -0.0567
     58 C         6.749297   2.511801   -2.029474 C.3        1 UNL1     0.0210
     59 C         2.354307   5.548032   -2.025902 C.3        1 UNL1     0.0372
     60 C         3.959892   3.121859   -1.421809 C.2        1 UNL1     -0.0208
     61 C         4.487204   3.943506   -0.513193 C.2        1 UNL1     0.0882
     62 H         4.462349   1.20407   2.889773 H        1 UNL1     0.0365
     63 H         6.351594   0.727729   3.501393 H        1 UNL1     0.0576
     64 H         6.305203   -1.518495   5.610683 H        1 UNL1     0.0615
     65 H         8.624671   -0.017316   4.153153 H        1 UNL1     0.0622
     66 H         2.886417   3.424319   -3.17575 H        1 UNL1     0.0645
     67 H         1.830214   1.588164   -3.290549 H        1 UNL1     0.0362
     68 H         -0.029213   2.553315   -2.637107 H        1 UNL1     0.0741
     69 H         -1.129774   2.265658   -0.242862 H        1 UNL1     0.0359
     70 H         -0.036673   2.67031   1.665252 H        1 UNL1     0.0600
     71 H         0.233753   0.584587   2.195666 H        1 UNL1     0.0348
     72 H         2.506025   1.334215   2.650509 H        1 UNL1     0.0602
     73 H         4.548749   2.342318   -1.837514 H        1 UNL1     0.0628
     74 H         3.933929   4.728922   0.002797 H        1 UNL1     0.1022
     75 H         9.196832   -3.236346   6.604059 H        1 UNL1     0.0279
     76 H         10.256288   -3.757058   5.355174 H        1 UNL1     0.0279
     77 H         10.788889   -2.600001   6.640808 H        1 UNL1     0.0279
     78 H         10.525426   -3.028219   3.228848 H        1 UNL1     0.1553
     79 H         8.582889   -3.321233   2.970163 H        1 UNL1     0.1484
     80 H         6.040914   -3.200477   0.148236 H        1 UNL1     0.0317
     81 H         7.753109   -2.890341   -0.101025 H        1 UNL1     0.0317
     82 H         8.376896   -4.726306   1.490775 H        1 UNL1     0.0428
     83 H         7.369063   -5.285824   0.174372 H        1 UNL1     0.0428
     84 H         5.425863   -4.58094   3.893277 H        1 UNL1     0.0428
     85 H         7.133767   -4.314831   3.856248 H        1 UNL1     0.0428
     86 H         5.671394   -2.302699   3.662228 H        1 UNL1     0.0317
     87 H         4.931304   -2.855892   2.230936 H        1 UNL1     0.0317
     88 H         5.42687   -6.862934   2.611146 H        1 UNL1     0.0429
     89 H         6.656258   -7.091294   1.365075 H        1 UNL1     0.0429
     90 H         8.109543   -5.99267   3.516057 H        1 UNL1     0.0308
     91 H         7.447442   -7.394829   5.512465 H        1 UNL1     0.0233
     92 H         6.180727   -6.224265   5.064461 H        1 UNL1     0.0233
     93 H         5.994016   -7.919838   4.671048 H        1 UNL1     0.0233
     94 H         8.533502   -8.645038   3.855905 H        1 UNL1     0.0233
     95 H         7.793487   -8.634038   2.247619 H        1 UNL1     0.0233
     96 H         9.258604   -7.674286   2.557937 H        1 UNL1     0.0233
     97 H         10.106179   4.799622   -1.211647 H        1 UNL1     0.0280
     98 H         11.522701   4.754854   -0.197424 H        1 UNL1     0.0280
     99 H         11.460649   3.754837   -1.679262 H        1 UNL1     0.0280
     100 H         12.769155   2.384062   -0.277533 H        1 UNL1     0.2922
     101 H         2.482658   1.860754   4.403191 H        1 UNL1     0.0236
     102 H         4.113973   2.240151   5.08211 H        1 UNL1     0.0236
     103 H         3.181695   0.896665   5.666403 H        1 UNL1     0.0236
     104 H         0.939819   0.01209   3.697158 H        1 UNL1     0.2098
     105 H         1.688555   -0.266564   -0.297512 H        1 UNL1     0.0234
     106 H         0.737667   -1.273681   0.830594 H        1 UNL1     0.0234
     107 H         0.0   0.0   0.0 H        1 UNL1     0.0234
     108 H         2.409363   2.796263   1.717186 H        1 UNL1     0.2098
     109 H         3.716223   0.560946   -2.342285 H        1 UNL1     0.0234
     110 H         2.996291   0.598019   -0.70121 H        1 UNL1     0.0234
     111 H         2.277904   -0.357848   -1.949843 H        1 UNL1     0.0234
     112 H         -1.515001   0.845277   0.472674 H        1 UNL1     0.0342
     113 H         -1.633409   -0.945945   0.347201 H        1 UNL1     0.0342
     114 H         -0.096216   -0.129407   0.050092 H        1 UNL1     0.0342
     115 H         -1.230219   4.163604   -1.656499 H        1 UNL1     0.0234
     116 H         -0.919306   4.660203   0.010086 H        1 UNL1     0.0234
     117 H         0.336285   4.683762   -1.245534 H        1 UNL1     0.0234
     118 H         6.085168   3.075756   -2.707628 H        1 UNL1     0.0309
     119 H         7.738678   2.42285   -2.489274 H        1 UNL1     0.0309
     120 H         6.3201   1.503907   -2.036132 H        1 UNL1     0.0309
     121 H         1.463125   6.095823   -2.330986 H        1 UNL1     0.0524
     122 H         2.845107   6.130332   -1.228356 H        1 UNL1     0.0524
     123 H         3.03919   5.450185   -2.863432 H        1 UNL1     0.0524
@<TRIPOS>BOND
     1     1     2    1
     2     1    42    1
     3     2     3    2
     4     3     4    1
     5     4     5    2
     6     5     7    1
     7     6    75    1
     8     6    76    1
     9     6    77    1
    10     7     9   am
    11     9    10    1
    12    10    11    2
    13    10    43    1
    14    11    14    1
    15    11    15    1
    16    12    13   ar
    17    12    27   ar
    18    12    43    1
    19    13    14    1
    20    13    30   ar
    21    14    17    2
    22    15    16    1
    23    16    17    1
    24    16    18    1
    25    16    22    1
    26    18    19    1
    27    19    20    1
    28    20    21    1
    29    21    22    1
    30    23    24    1
    31    23    88    1
    32    23    89    1
    33    24    25    1
    34    24    26    1
    35    24    90    1
    36    25    91    1
    37    25    92    1
    38    25    93    1
    39    26    94    1
    40    26    95    1
    41    26    96    1
    42    27    28   ar
    43    28    29   ar
    44    29    30   ar
    45    29    31    1
    46    30    33    1
    47    31    32    1
    48    32    33    1
    49    32    35    1
    50    34    97    1
    51    34    98    1
    52    34    99    1
    53    35    61    1
    54    36    37    1
    55    36    60    1
    56    37    38    1
    57    38    39    1
    58    39    40    1
    59    40    41    1
    60    41    42    1
    61    45   100    1
    62    47   101    1
    63    47   102    1
    64    47   103    1
    65    48   104    1
    66    49   105    1
    67    49   106    1
    68    49   107    1
    69    50   108    1
    70    51    59    1
    71    52   109    1
    72    52   110    1
    73    52   111    1
    74    53    54    1
    75    54    55    2
    76    54    56    1
    77    56   112    1
    78    56   113    1
    79    56   114    1
    80    57   115    1
    81    57   116    1
    82    57   117    1
    83    58   118    1
    84    58   119    1
    85    58   120    1
    86    59   121    1
    87    59   122    1
    88    59   123    1
    89    60    61    2
    90     1    47    1
    91     1    62    1
    92     2    63    1
    93     3    64    1
    94     4    65    1
    95     5     6    1
    96     7     8    2
    97     9    78    1
    98    15    79    1
    99    18    80    1
   100    18    81    1
   101    19    82    1
   102    19    83    1
   103    20    23    1
   104    21    84    1
   105    21    85    1
   106    22    86    1
   107    22    87    1
   108    27    45    1
   109    28    34    1
   110    32    58    1
   111    33    46    2
   112    36    51    1
   113    36    66    1
   114    37    52    1
   115    37    67    1
   116    38    53    1
   117    38    68    1
   118    42    48    1
   119    42    72    1
   120    43    44    2
   121    60    73    1
   122    61    74    1
   123    39    69    1
   124    39    57    1
   125    40    70    1
   126    40    50    1
   127    41    71    1
   128    41    49    1
