@<TRIPOS>MOLECULE
*****
 123 128 0 0 0
SMALL
GASTEIGER

@<TRIPOS>ATOM
     1 C         5.006091   2.12805   0.650061 C.3        1 UNL1     0.0009
     2 C         6.369104   3.107998   -0.136664 C.2        1 UNL1     -0.0787
     3 C         7.66122   3.164771   -0.787247 C.2        1 UNL1     -0.0649
     4 C         8.426172   4.514086   -1.465889 C.2        1 UNL1     -0.0542
     5 C         9.423603   4.949163   -2.373036 C.2        1 UNL1     0.0115
     6 C         10.61437   4.477731   -3.252326 C.3        1 UNL1     -0.0348
     7 C         9.385096   6.464351   -2.901915 C.2        1 UNL1     0.2441
     8 O         10.124136   7.338647   -2.470694 O.2        1 UNL1     -0.2702
     9 N         8.630641   6.660876   -4.07167 N.am        1 UNL1     -0.2772
     10 C         7.314116   6.909161   -3.757923 C.2        1 UNL1     0.1049
     11 C         6.560572   5.849105   -3.528412 C.2        1 UNL1     0.0801
     12 C         5.856062   8.311936   -2.286993 C.ar        1 UNL1     0.0753
     13 C         5.202006   7.096294   -1.908796 C.ar        1 UNL1     0.0305
     14 C         5.44782   5.842554   -2.617853 C.2        1 UNL1     0.0924
     15 N         6.809308   4.547476   -3.752952 N.pl3        1 UNL1     -0.3170
     16 C         5.598342   3.816743   -3.488671 C.3        1 UNL1     0.1275
     17 N         4.864975   4.656093   -2.471131 N.2        1 UNL1     -0.2557
     18 C         4.756581   3.861462   -4.760339 C.3        1 UNL1     0.0016
     19 C         5.583891   3.3105   -5.910812 C.3        1 UNL1     0.0026
     20 N         5.978582   1.945488   -5.591455 N.3        1 UNL1     -0.3018
     21 C         6.741034   1.792929   -4.350584 C.3        1 UNL1     0.0026
     22 C         5.889439   2.348447   -3.207746 C.3        1 UNL1     0.0016
     23 C         6.509464   1.229869   -6.734563 C.3        1 UNL1     0.0012
     24 C         5.392641   0.924896   -7.745233 C.3        1 UNL1     -0.0339
     25 C         5.577263   1.724305   -9.045586 C.3        1 UNL1     -0.0615
     26 C         5.32538   -0.568775   -8.012072 C.3        1 UNL1     -0.0615
     27 C         5.527562   9.525187   -1.686803 C.ar        1 UNL1     0.1347
     28 C         4.537708   9.653667   -0.728819 C.ar        1 UNL1     0.0342
     29 C         3.941373   8.436229   -0.337165 C.ar        1 UNL1     0.1435
     30 C         4.285592   7.208331   -0.903735 C.ar        1 UNL1     0.0774
     31 O         2.885713   8.407503   0.505308 O.3        1 UNL1     -0.4436
     32 C         2.28472   7.1217   0.28992 C.3        1 UNL1     0.3143
     33 C         3.392313   6.25664   -0.276756 C.2        1 UNL1     0.2504
     34 C         3.959861   10.947277   -0.226061 C.3        1 UNL1     -0.0327
     35 O         1.953449   6.585391   1.576731 O.2        1 UNL1     -0.4528
     36 C         -1.089207   4.381843   1.033862 C.3        1 UNL1     0.0854
     37 C         -1.26543   3.146594   0.069171 C.3        1 UNL1     0.0236
     38 C         -1.752618   1.795707   0.782962 C.3        1 UNL1     0.1131
     39 C         -0.99335   1.268002   2.066438 C.3        1 UNL1     0.0200
     40 C         0.673664   1.276388   2.125021 C.3        1 UNL1     0.0661
     41 C         1.712918   0.662363   0.93316 C.3        1 UNL1     0.0091
     42 C         3.384442   1.211726   0.41392 C.3        1 UNL1     0.0661
     43 C         6.832746   8.252462   -3.402704 C.2        1 UNL1     0.2131
     44 O         7.153611   9.220101   -4.068629 O.2        1 UNL1     -0.2851
     45 O         6.243431   10.654093   -2.079921 O.3        1 UNL1     -0.5056
     46 O         3.520152   5.054703   -0.207048 O.2        1 UNL1     -0.2836
     47 C         5.426511   1.663335   2.070367 C.3        1 UNL1     -0.0566
     48 O         3.962942   -0.153622   0.430638 O.3        1 UNL1     -0.3909
     49 C         0.916927   0.41759   -0.329369 C.3        1 UNL1     -0.0577
     50 O         1.152593   2.522944   2.588108 O.3        1 UNL1     -0.3910
     51 O         -1.208992   4.109353   2.411843 O.3        1 UNL1     -0.3753
     52 C         -0.198884   3.144536   -1.074255 C.3        1 UNL1     -0.0564
     53 O         -2.245635   0.753128   -0.177396 O.3        1 UNL1     -0.4608
     54 C         -2.356575   -0.586135   0.090929 C.2        1 UNL1     0.3042
     55 O         -1.599283   -1.485657   -0.271295 O.2        1 UNL1     -0.2512
     56 C         -3.521163   -0.92765   0.976263 C.3        1 UNL1     0.0332
     57 C         -1.78687   1.800243   3.349099 C.3        1 UNL1     -0.0567
     58 C         1.202274   7.321248   -0.796368 C.3        1 UNL1     0.0210
     59 C         -2.405173   4.597321   3.01757 C.3        1 UNL1     0.0372
     60 C         0.176967   5.143495   0.855402 C.2        1 UNL1     -0.0208
     61 C         1.036044   5.616367   1.759351 C.2        1 UNL1     0.0882
     62 H         4.438819   3.057573   0.780063 H        1 UNL1     0.0365
     63 H         6.003829   4.125405   0.018023 H        1 UNL1     0.0576
     64 H         8.210033   2.257715   -1.050235 H        1 UNL1     0.0615
     65 H         7.85163   5.360698   -1.08036 H        1 UNL1     0.0622
     66 H         -1.897616   5.070625   0.750842 H        1 UNL1     0.0645
     67 H         -2.15001   3.405066   -0.538504 H        1 UNL1     0.0362
     68 H         -2.740107   2.123302   1.142222 H        1 UNL1     0.0741
     69 H         -1.230228   0.221567   2.205263 H        1 UNL1     0.0359
     70 H         0.838144   0.584502   2.973136 H        1 UNL1     0.0600
     71 H         1.848064   -0.371059   1.308301 H        1 UNL1     0.0348
     72 H         3.223177   1.636336   1.415426 H        1 UNL1     0.0602
     73 H         0.286273   5.404487   -0.167918 H        1 UNL1     0.0628
     74 H         1.027564   5.349686   2.816728 H        1 UNL1     0.1022
     75 H         11.428278   4.054322   -2.615684 H        1 UNL1     0.0279
     76 H         10.412953   3.664828   -3.946365 H        1 UNL1     0.0279
     77 H         11.135816   5.311663   -3.744617 H        1 UNL1     0.0279
     78 H         8.656089   5.817387   -4.640842 H        1 UNL1     0.1553
     79 H         7.518115   4.216182   -4.381258 H        1 UNL1     0.1484
     80 H         3.84384   3.273428   -4.605783 H        1 UNL1     0.0317
     81 H         4.436184   4.885177   -4.98171 H        1 UNL1     0.0317
     82 H         6.462898   3.938607   -6.117553 H        1 UNL1     0.0428
     83 H         4.965386   3.35324   -6.807849 H        1 UNL1     0.0428
     84 H         6.955816   0.751136   -4.093004 H        1 UNL1     0.0428
     85 H         7.732927   2.260503   -4.420162 H        1 UNL1     0.0428
     86 H         6.417905   2.100598   -2.305925 H        1 UNL1     0.0317
     87 H         4.958064   1.775525   -3.121733 H        1 UNL1     0.0317
     88 H         7.256316   1.870343   -7.221698 H        1 UNL1     0.0429
     89 H         7.025553   0.31171   -6.425679 H        1 UNL1     0.0429
     90 H         4.425641   1.194194   -7.304097 H        1 UNL1     0.0308
     91 H         6.612355   1.678394   -9.397127 H        1 UNL1     0.0233
     92 H         4.915514   1.346549   -9.828527 H        1 UNL1     0.0233
     93 H         5.330043   2.785647   -8.922015 H        1 UNL1     0.0233
     94 H         4.83551   -0.759081   -8.973137 H        1 UNL1     0.0233
     95 H         6.335289   -0.9856   -8.060075 H        1 UNL1     0.0233
     96 H         4.765575   -1.08907   -7.229844 H        1 UNL1     0.0233
     97 H         2.887033   11.003198   -0.384626 H        1 UNL1     0.0280
     98 H         4.111198   11.076191   0.853631 H        1 UNL1     0.0280
     99 H         4.431705   11.792111   -0.753996 H        1 UNL1     0.0280
     100 H         5.711071   11.398155   -2.300347 H        1 UNL1     0.2922
     101 H         4.54004   1.412823   2.652664 H        1 UNL1     0.0236
     102 H         6.064444   2.381153   2.584916 H        1 UNL1     0.0236
     103 H         6.016257   0.731842   2.043671 H        1 UNL1     0.0236
     104 H         4.305789   -0.31769   1.330921 H        1 UNL1     0.2098
     105 H         0.688408   1.315851   -0.897452 H        1 UNL1     0.0234
     106 H         1.327896   -0.349818   -0.985202 H        1 UNL1     0.0234
     107 H         0.0   -0.0   0.0 H        1 UNL1     0.0234
     108 H         1.038085   3.165688   1.861792 H        1 UNL1     0.2098
     109 H         -0.266564   4.039914   -1.707841 H        1 UNL1     0.0234
     110 H         0.82664   3.032879   -0.706048 H        1 UNL1     0.0234
     111 H         -0.333087   2.290446   -1.751357 H        1 UNL1     0.0234
     112 H         -4.036953   -1.811312   0.588388 H        1 UNL1     0.0342
     113 H         -3.218866   -1.07492   2.01201 H        1 UNL1     0.0342
     114 H         -4.228462   -0.087224   0.952225 H        1 UNL1     0.0342
     115 H         -2.855921   1.55138   3.300256 H        1 UNL1     0.0234
     116 H         -1.403972   1.418906   4.297793 H        1 UNL1     0.0234
     117 H         -1.827177   2.901084   3.415924 H        1 UNL1     0.0234
     118 H         0.181531   7.217752   -0.388474 H        1 UNL1     0.0309
     119 H         1.285305   8.282041   -1.314235 H        1 UNL1     0.0309
     120 H         1.242019   6.552316   -1.575643 H        1 UNL1     0.0309
     121 H         -2.199004   4.752618   4.076217 H        1 UNL1     0.0524
     122 H         -2.722907   5.565385   2.595747 H        1 UNL1     0.0524
     123 H         -3.209604   3.877803   2.893968 H        1 UNL1     0.0524
@<TRIPOS>BOND
     1     1     2    1
     2     1    42    1
     3     2     3    2
     4     3     4    1
     5     4     5    2
     6     5     7    1
     7     6    75    1
     8     6    76    1
     9     6    77    1
    10     7     9   am
    11     9    10    1
    12    10    11    2
    13    10    43    1
    14    11    14    1
    15    11    15    1
    16    12    13   ar
    17    12    27   ar
    18    12    43    1
    19    13    14    1
    20    13    30   ar
    21    14    17    2
    22    15    16    1
    23    16    17    1
    24    16    18    1
    25    16    22    1
    26    18    19    1
    27    19    20    1
    28    20    21    1
    29    21    22    1
    30    23    24    1
    31    23    88    1
    32    23    89    1
    33    24    25    1
    34    24    26    1
    35    24    90    1
    36    25    91    1
    37    25    92    1
    38    25    93    1
    39    26    94    1
    40    26    95    1
    41    26    96    1
    42    27    28   ar
    43    28    29   ar
    44    29    30   ar
    45    29    31    1
    46    30    33    1
    47    31    32    1
    48    32    33    1
    49    32    35    1
    50    34    97    1
    51    34    98    1
    52    34    99    1
    53    35    61    1
    54    36    37    1
    55    36    60    1
    56    37    38    1
    57    38    39    1
    58    39    40    1
    59    40    41    1
    60    41    42    1
    61    45   100    1
    62    47   101    1
    63    47   102    1
    64    47   103    1
    65    48   104    1
    66    49   105    1
    67    49   106    1
    68    49   107    1
    69    50   108    1
    70    51    59    1
    71    52   109    1
    72    52   110    1
    73    52   111    1
    74    53    54    1
    75    54    55    2
    76    54    56    1
    77    56   112    1
    78    56   113    1
    79    56   114    1
    80    57   115    1
    81    57   116    1
    82    57   117    1
    83    58   118    1
    84    58   119    1
    85    58   120    1
    86    59   121    1
    87    59   122    1
    88    59   123    1
    89    60    61    2
    90     1    47    1
    91     1    62    1
    92     2    63    1
    93     3    64    1
    94     4    65    1
    95     5     6    1
    96     7     8    2
    97     9    78    1
    98    15    79    1
    99    18    80    1
   100    18    81    1
   101    19    82    1
   102    19    83    1
   103    20    23    1
   104    21    84    1
   105    21    85    1
   106    22    86    1
   107    22    87    1
   108    27    45    1
   109    28    34    1
   110    32    58    1
   111    33    46    2
   112    36    51    1
   113    36    66    1
   114    37    52    1
   115    37    67    1
   116    38    53    1
   117    38    68    1
   118    42    48    1
   119    42    72    1
   120    43    44    2
   121    60    73    1
   122    61    74    1
   123    39    69    1
   124    39    57    1
   125    40    70    1
   126    40    50    1
   127    41    71    1
   128    41    49    1
