@<TRIPOS>MOLECULE
*****
 123 128 0 0 0
SMALL
GASTEIGER

@<TRIPOS>ATOM
     1 C         -0.165044   4.113532   1.011245 C.3        1 UNL1     0.0009
     2 C         -1.252613   5.418364   0.268519 C.2        1 UNL1     -0.0787
     3 C         -1.425351   6.567405   -0.595144 C.2        1 UNL1     -0.0649
     4 C         -2.867768   7.352954   -1.005879 C.2        1 UNL1     -0.0542
     5 C         -3.496046   8.21332   -1.93975 C.2        1 UNL1     0.0115
     6 C         -3.242109   9.157993   -3.146577 C.3        1 UNL1     -0.0348
     7 C         -5.099672   8.262197   -1.994374 C.2        1 UNL1     0.2441
     8 O         -5.755132   9.167529   -1.497109 O.2        1 UNL1     -0.2702
     9 N         -5.687522   7.336399   -2.873851 N.am        1 UNL1     -0.2772
     10 C         -5.908576   6.138936   -2.233118 C.2        1 UNL1     0.1049
     11 C         -4.876829   5.317527   -2.162361 C.2        1 UNL1     0.0801
     12 C         -6.884823   5.153772   -0.151357 C.ar        1 UNL1     0.0753
     13 C         -5.653945   4.437777   -0.006794 C.ar        1 UNL1     0.0305
     14 C         -4.662017   4.396984   -1.078925 C.2        1 UNL1     0.0924
     15 N         -3.692132   5.362166   -2.795629 N.pl3        1 UNL1     -0.3170
     16 C         -2.99084   4.140503   -2.502399 C.3        1 UNL1     0.1275
     17 N         -3.524803   3.711783   -1.15748 N.2        1 UNL1     -0.2557
     18 C         -3.47059   3.092601   -3.50212 C.3        1 UNL1     0.0016
     19 C         -3.245474   3.62356   -4.908888 C.3        1 UNL1     0.0026
     20 N         -1.826543   3.902161   -5.082221 N.3        1 UNL1     -0.3018
     21 C         -1.258428   4.85404   -4.125382 C.3        1 UNL1     0.0026
     22 C         -1.491673   4.298542   -2.719355 C.3        1 UNL1     0.0016
     23 C         -1.460678   4.125335   -6.466771 C.3        1 UNL1     0.0012
     24 C         -1.545451   2.814416   -7.264305 C.3        1 UNL1     -0.0339
     25 C         -0.469002   2.752395   -8.36042 C.3        1 UNL1     -0.0615
     26 C         -1.454342   1.625611   -6.323443 C.3        1 UNL1     -0.0615
     27 C         -7.87633   5.089139   0.824786 C.ar        1 UNL1     0.1347
     28 C         -7.768037   4.313468   1.96525 C.ar        1 UNL1     0.0342
     29 C         -6.527851   3.656034   2.109762 C.ar        1 UNL1     0.1435
     30 C         -5.511256   3.740368   1.157584 C.ar        1 UNL1     0.0774
     31 O         -6.30914   2.776107   3.11121 O.3        1 UNL1     -0.4436
     32 C         -5.188472   1.995167   2.669499 C.3        1 UNL1     0.3143
     33 C         -4.470429   2.868175   1.660299 C.2        1 UNL1     0.2504
     34 C         -8.880713   3.997457   2.925556 C.3        1 UNL1     -0.0327
     35 O         -4.30813   1.841854   3.789654 O.2        1 UNL1     -0.4528
     36 C         -2.562904   -1.492147   3.292951 C.3        1 UNL1     0.0854
     37 C         -1.69185   -1.989148   2.075668 C.3        1 UNL1     0.0236
     38 C         -0.220353   -2.497437   2.460482 C.3        1 UNL1     0.1131
     39 C         0.717219   -1.586182   3.350899 C.3        1 UNL1     0.0200
     40 C         0.82856   0.052172   3.057918 C.3        1 UNL1     0.0661
     41 C         1.113989   0.774782   1.549948 C.3        1 UNL1     0.0091
     42 C         0.53583   2.377462   0.869836 C.3        1 UNL1     0.0661
     43 C         -7.107405   5.896157   -1.416893 C.2        1 UNL1     0.2131
     44 O         -8.210083   6.204616   -1.83125 O.2        1 UNL1     -0.2851
     45 O         -9.025495   5.852259   0.628561 O.3        1 UNL1     -0.5056
     46 O         -3.298586   2.860541   1.356028 O.2        1 UNL1     -0.2836
     47 C         0.733522   4.726701   2.118759 C.3        1 UNL1     -0.0566
     48 O         1.874423   2.780189   0.374766 O.3        1 UNL1     -0.3909
     49 C         0.915074   -0.261737   0.466641 C.3        1 UNL1     -0.0577
     50 O         -0.187046   0.754438   3.745733 O.3        1 UNL1     -0.3910
     51 O         -1.892872   -1.390619   4.529147 O.3        1 UNL1     -0.3753
     52 C         -1.971967   -1.1572   0.781703 C.3        1 UNL1     -0.0564
     53 O         0.449514   -3.279516   1.368714 O.3        1 UNL1     -0.4608
     54 C         1.800856   -3.466304   1.238658 C.2        1 UNL1     0.3042
     55 O         2.512435   -4.24159   1.876173 O.2        1 UNL1     -0.2512
     56 C         2.418581   -2.645998   0.142196 C.3        1 UNL1     0.0332
     57 C         0.552082   -2.062321   4.868857 C.3        1 UNL1     -0.0567
     58 C         -5.773842   0.764906   1.937838 C.3        1 UNL1     0.0210
     59 C         -2.245888   -2.388469   5.485986 C.3        1 UNL1     0.0372
     60 C         -3.264187   -0.197228   3.077198 C.2        1 UNL1     -0.0208
     61 C         -3.387156   0.862989   3.876925 C.2        1 UNL1     0.0882
     62 H         -1.044005   3.695909   1.516941 H        1 UNL1     0.0365
     63 H         -2.195347   5.212959   0.779921 H        1 UNL1     0.0576
     64 H         -0.609239   6.945476   -1.214929 H        1 UNL1     0.0615
     65 H         -3.59078   6.964829   -0.283317 H        1 UNL1     0.0622
     66 H         -3.352992   -2.249454   3.394411 H        1 UNL1     0.0645
     67 H         -2.175938   -2.931936   1.766846 H        1 UNL1     0.0362
     68 H         -0.482967   -3.355956   3.097272 H        1 UNL1     0.0741
     69 H         1.73996   -1.918326   3.232202 H        1 UNL1     0.0359
     70 H         1.753887   0.283822   3.619316 H        1 UNL1     0.0600
     71 H         2.21874   0.850324   1.577822 H        1 UNL1     0.0348
     72 H         0.426215   2.454004   1.961367 H        1 UNL1     0.0602
     73 H         -3.816284   -0.245689   2.171611 H        1 UNL1     0.0628
     74 H         -2.813171   1.015358   4.791563 H        1 UNL1     0.1022
     75 H         -2.469791   9.9227   -2.890099 H        1 UNL1     0.0279
     76 H         -2.829707   8.699986   -4.042805 H        1 UNL1     0.0279
     77 H         -4.108754   9.794365   -3.378221 H        1 UNL1     0.0279
     78 H         -5.056661   7.155608   -3.651929 H        1 UNL1     0.1553
     79 H         -3.524632   5.899236   -3.626552 H        1 UNL1     0.1484
     80 H         -2.920125   2.15916   -3.333472 H        1 UNL1     0.0317
     81 H         -4.530723   2.863166   -3.35004 H        1 UNL1     0.0317
     82 H         -3.851937   4.519405   -5.107831 H        1 UNL1     0.0428
     83 H         -3.596041   2.861593   -5.605708 H        1 UNL1     0.0428
     84 H         -0.176547   4.984839   -4.226568 H        1 UNL1     0.0428
     85 H         -1.663738   5.865674   -4.26552 H        1 UNL1     0.0428
     86 H         -0.950103   4.948764   -2.057614 H        1 UNL1     0.0317
     87 H         -0.977515   3.336242   -2.606588 H        1 UNL1     0.0317
     88 H         -2.17205   4.84258   -6.896657 H        1 UNL1     0.0429
     89 H         -0.462435   4.574427   -6.548024 H        1 UNL1     0.0429
     90 H         -2.531468   2.745865   -7.738947 H        1 UNL1     0.0308
     91 H         0.509147   3.055161   -7.974855 H        1 UNL1     0.0233
     92 H         -0.395287   1.743376   -8.772799 H        1 UNL1     0.0233
     93 H         -0.695775   3.412624   -9.206295 H        1 UNL1     0.0233
     94 H         -0.88631   0.815131   -6.792802 H        1 UNL1     0.0233
     95 H         -0.9342   1.914361   -5.405817 H        1 UNL1     0.0233
     96 H         -2.446307   1.246299   -6.062489 H        1 UNL1     0.0233
     97 H         -9.175636   4.865622   3.507398 H        1 UNL1     0.0280
     98 H         -9.788753   3.658721   2.409826 H        1 UNL1     0.0280
     99 H         -8.553516   3.208986   3.622945 H        1 UNL1     0.0280
     100 H         -8.864469   6.751004   0.400636 H        1 UNL1     0.2922
     101 H         1.591046   4.078309   2.297356 H        1 UNL1     0.0236
     102 H         0.190724   4.949122   3.036846 H        1 UNL1     0.0236
     103 H         1.171111   5.690874   1.810411 H        1 UNL1     0.0236
     104 H         1.95683   2.461345   -0.545299 H        1 UNL1     0.2098
     105 H         1.688515   -0.267082   -0.297279 H        1 UNL1     0.0234
     106 H         0.737379   -1.273319   0.831404 H        1 UNL1     0.0234
     107 H         0.0   0.0   0.0 H        1 UNL1     0.0234
     108 H         -0.061252   1.704468   3.557618 H        1 UNL1     0.2098
     109 H         -3.019783   -1.230705   0.458608 H        1 UNL1     0.0234
     110 H         -1.691578   -0.10283   0.878815 H        1 UNL1     0.0234
     111 H         -1.373507   -1.51474   -0.066799 H        1 UNL1     0.0234
     112 H         3.495234   -2.83599   0.096738 H        1 UNL1     0.0342
     113 H         1.948131   -2.830965   -0.822328 H        1 UNL1     0.0342
     114 H         2.273917   -1.584253   0.38496 H        1 UNL1     0.0342
     115 H         1.01331   -1.354548   5.571363 H        1 UNL1     0.0234
     116 H         -0.484998   -2.204322   5.179261 H        1 UNL1     0.0234
     117 H         1.107227   -2.987016   5.102726 H        1 UNL1     0.0234
     118 H         -5.613804   -0.169232   2.504214 H        1 UNL1     0.0309
     119 H         -6.839559   0.867464   1.709954 H        1 UNL1     0.0309
     120 H         -5.276771   0.568749   0.981518 H        1 UNL1     0.0309
     121 H         -2.92856   -1.931761   6.20204 H        1 UNL1     0.0524
     122 H         -2.770105   -3.24254   5.025772 H        1 UNL1     0.0524
     123 H         -1.357657   -2.752459   5.994563 H        1 UNL1     0.0524
@<TRIPOS>BOND
     1     1     2    1
     2     1    42    1
     3     2     3    2
     4     3     4    1
     5     4     5    2
     6     5     7    1
     7     6    75    1
     8     6    76    1
     9     6    77    1
    10     7     9   am
    11     9    10    1
    12    10    11    2
    13    10    43    1
    14    11    14    1
    15    11    15    1
    16    12    13   ar
    17    12    27   ar
    18    12    43    1
    19    13    14    1
    20    13    30   ar
    21    14    17    2
    22    15    16    1
    23    16    17    1
    24    16    18    1
    25    16    22    1
    26    18    19    1
    27    19    20    1
    28    20    21    1
    29    21    22    1
    30    23    24    1
    31    23    88    1
    32    23    89    1
    33    24    25    1
    34    24    26    1
    35    24    90    1
    36    25    91    1
    37    25    92    1
    38    25    93    1
    39    26    94    1
    40    26    95    1
    41    26    96    1
    42    27    28   ar
    43    28    29   ar
    44    29    30   ar
    45    29    31    1
    46    30    33    1
    47    31    32    1
    48    32    33    1
    49    32    35    1
    50    34    97    1
    51    34    98    1
    52    34    99    1
    53    35    61    1
    54    36    37    1
    55    36    60    1
    56    37    38    1
    57    38    39    1
    58    39    40    1
    59    40    41    1
    60    41    42    1
    61    45   100    1
    62    47   101    1
    63    47   102    1
    64    47   103    1
    65    48   104    1
    66    49   105    1
    67    49   106    1
    68    49   107    1
    69    50   108    1
    70    51    59    1
    71    52   109    1
    72    52   110    1
    73    52   111    1
    74    53    54    1
    75    54    55    2
    76    54    56    1
    77    56   112    1
    78    56   113    1
    79    56   114    1
    80    57   115    1
    81    57   116    1
    82    57   117    1
    83    58   118    1
    84    58   119    1
    85    58   120    1
    86    59   121    1
    87    59   122    1
    88    59   123    1
    89    60    61    2
    90     1    47    1
    91     1    62    1
    92     2    63    1
    93     3    64    1
    94     4    65    1
    95     5     6    1
    96     7     8    2
    97     9    78    1
    98    15    79    1
    99    18    80    1
   100    18    81    1
   101    19    82    1
   102    19    83    1
   103    20    23    1
   104    21    84    1
   105    21    85    1
   106    22    86    1
   107    22    87    1
   108    27    45    1
   109    28    34    1
   110    32    58    1
   111    33    46    2
   112    36    51    1
   113    36    66    1
   114    37    52    1
   115    37    67    1
   116    38    53    1
   117    38    68    1
   118    42    48    1
   119    42    72    1
   120    43    44    2
   121    60    73    1
   122    61    74    1
   123    39    69    1
   124    39    57    1
   125    40    70    1
   126    40    50    1
   127    41    71    1
   128    41    49    1
