@<TRIPOS>MOLECULE
*****
 123 128 0 0 0
SMALL
GASTEIGER

@<TRIPOS>ATOM
     1 C         5.154092   1.793212   0.467966 C.3        1 UNL1     0.0009
     2 C         6.590975   2.58226   -0.397949 C.2        1 UNL1     -0.0787
     3 C         7.877204   2.471983   -1.053312 C.2        1 UNL1     -0.0649
     4 C         8.751847   3.689343   -1.840326 C.2        1 UNL1     -0.0542
     5 C         9.775548   3.960074   -2.781505 C.2        1 UNL1     0.0115
     6 C         10.912291   3.315941   -3.621882 C.3        1 UNL1     -0.0348
     7 C         9.865821   5.425234   -3.431233 C.2        1 UNL1     0.2441
     8 O         10.68277   6.262592   -3.073529 O.2        1 UNL1     -0.2702
     9 N         9.121161   5.592943   -4.611702 N.am        1 UNL1     -0.2772
     10 C         7.834456   5.981141   -4.316721 C.2        1 UNL1     0.1049
     11 C         6.992619   5.013811   -4.000799 C.2        1 UNL1     0.0801
     12 C         6.518736   7.621187   -2.961559 C.ar        1 UNL1     0.0753
     13 C         5.763632   6.502554   -2.485023 C.ar        1 UNL1     0.0305
     14 C         5.891796   5.179006   -3.090703 C.2        1 UNL1     0.0924
     15 N         7.12381   3.681451   -4.11968 N.pl3        1 UNL1     -0.3170
     16 C         5.85564   3.084338   -3.79494 C.3        1 UNL1     0.1275
     17 N         5.208122   4.064418   -2.847371 N.2        1 UNL1     -0.2557
     18 C         5.009744   3.100852   -5.064542 C.3        1 UNL1     0.0016
     19 C         5.775031   2.388084   -6.168122 C.3        1 UNL1     0.0026
     20 N         6.05089   1.023657   -5.740023 N.3        1 UNL1     -0.3018
     21 C         6.808021   0.904614   -4.492245 C.3        1 UNL1     0.0026
     22 C         6.018878   1.623439   -3.396601 C.3        1 UNL1     0.0016
     23 C         6.506485   0.174225   -6.822401 C.3        1 UNL1     0.0012
     24 C         5.358161   -0.111112   -7.80306 C.3        1 UNL1     -0.0339
     25 C         5.394898   0.845979   -9.005841 C.3        1 UNL1     -0.0615
     26 C         5.398338   -1.564116   -8.243451 C.3        1 UNL1     -0.0615
     27 C         6.303674   8.903088   -2.460964 C.ar        1 UNL1     0.1347
     28 C         5.337575   9.195292   -1.51475 C.ar        1 UNL1     0.0342
     29 C         4.639929   8.070853   -1.024759 C.ar        1 UNL1     0.1435
     30 C         4.86966   6.775725   -1.490687 C.ar        1 UNL1     0.0774
     31 O         3.593413   8.203503   -0.180831 O.3        1 UNL1     -0.4436
     32 C         2.879682   6.96275   -0.290347 C.3        1 UNL1     0.3143
     33 C         3.901727   5.960328   -0.787124 C.2        1 UNL1     0.2504
     34 C         4.880346   10.571189   -1.117324 C.3        1 UNL1     -0.0327
     35 O         2.514013   6.563147   1.036248 O.2        1 UNL1     -0.4528
     36 C         -0.71551   4.600842   0.679001 C.3        1 UNL1     0.0854
     37 C         -1.008387   3.312409   -0.182211 C.3        1 UNL1     0.0236
     38 C         -1.606179   2.07175   0.639465 C.3        1 UNL1     0.1131
     39 C         -0.884857   1.583962   1.960082 C.3        1 UNL1     0.0200
     40 C         0.776883   1.449558   2.014802 C.3        1 UNL1     0.0661
     41 C         1.747361   0.652102   0.874694 C.3        1 UNL1     0.0091
     42 C         3.45604   1.007892   0.309688 C.3        1 UNL1     0.0661
     43 C         7.476379   7.385965   -4.070545 C.2        1 UNL1     0.2131
     44 O         7.875197   8.264691   -4.813191 O.2        1 UNL1     -0.2851
     45 O         7.11258   9.92894   -2.945461 O.3        1 UNL1     -0.5056
     46 O         3.923901   4.761319   -0.620576 O.2        1 UNL1     -0.2836
     47 C         5.544662   1.408946   1.920473 C.3        1 UNL1     -0.0566
     48 O         3.912251   -0.397481   0.435839 O.3        1 UNL1     -0.3909
     49 C         0.921658   0.377888   -0.362446 C.3        1 UNL1     -0.0577
     50 O         1.367789   2.682075   2.3746 O.3        1 UNL1     -0.3910
     51 O         -0.846486   4.451796   2.074731 O.3        1 UNL1     -0.3753
     52 C         0.043571   3.124014   -1.323631 C.3        1 UNL1     -0.0564
     53 O         -2.197612   1.002973   -0.232458 O.3        1 UNL1     -0.4608
     54 C         -2.426434   -0.294493   0.144572 C.2        1 UNL1     0.3042
     55 O         -1.848073   -1.302641   -0.259131 O.2        1 UNL1     -0.2512
     56 C         -3.473104   -0.434614   1.213011 C.3        1 UNL1     0.0332
     57 C         -1.616952   2.285793   3.196871 C.3        1 UNL1     -0.0567
     58 C         1.80933   7.169189   -1.387279 C.3        1 UNL1     0.0210
     59 C         -1.170711   5.650361   2.777713 C.3        1 UNL1     0.0372
     60 C         0.61114   5.230675   0.437198 C.2        1 UNL1     -0.0208
     61 C         1.516551   5.696916   1.298357 C.2        1 UNL1     0.0882
     62 H         4.672018   2.776702   0.523314 H        1 UNL1     0.0365
     63 H         6.318062   3.637123   -0.325475 H        1 UNL1     0.0576
     64 H         8.34168   1.50173   -1.242994 H        1 UNL1     0.0615
     65 H         8.257519   4.611723   -1.523565 H        1 UNL1     0.0622
     66 H         -1.462657   5.333409   0.342604 H        1 UNL1     0.0645
     67 H         -1.872184   3.598364   -0.807228 H        1 UNL1     0.0362
     68 H         -2.557751   2.513248   0.972799 H        1 UNL1     0.0741
     69 H         -1.211665   0.57716   2.183586 H        1 UNL1     0.0359
     70 H         0.887406   0.81634   2.915846 H        1 UNL1     0.0600
     71 H         1.794377   -0.355669   1.332018 H        1 UNL1     0.0348
     72 H         3.341734   1.524316   1.273823 H        1 UNL1     0.0602
     73 H         0.733838   5.397775   -0.604085 H        1 UNL1     0.0628
     74 H         1.494087   5.517991   2.373866 H        1 UNL1     0.1022
     75 H         10.943793   2.211826   -3.457653 H        1 UNL1     0.0279
     76 H         10.817667   3.38937   -4.702957 H        1 UNL1     0.0279
     77 H         11.914527   3.614485   -3.281156 H        1 UNL1     0.0279
     78 H         9.06718   4.707451   -5.11077 H        1 UNL1     0.1553
     79 H         7.795062   3.239278   -4.720377 H        1 UNL1     0.1484
     80 H         4.05021   2.610206   -4.861253 H        1 UNL1     0.0317
     81 H         4.778726   4.127745   -5.367481 H        1 UNL1     0.0317
     82 H         6.704025   2.917299   -6.426607 H        1 UNL1     0.0428
     83 H         5.154692   2.413034   -7.064563 H        1 UNL1     0.0428
     84 H         6.932572   -0.127973   -4.151563 H        1 UNL1     0.0428
     85 H         7.836555   1.275502   -4.601226 H        1 UNL1     0.0428
     86 H         6.531522   1.4032   -2.478625 H        1 UNL1     0.0317
     87 H         5.041499   1.143929   -3.26282 H        1 UNL1     0.0317
     88 H         7.302423   0.704843   -7.361123 H        1 UNL1     0.0429
     89 H         6.942501   -0.758136   -6.441132 H        1 UNL1     0.0429
     90 H         4.401443   0.017957   -7.283209 H        1 UNL1     0.0308
     91 H         6.351393   0.785003   -9.533574 H        1 UNL1     0.0233
     92 H         4.585195   0.620501   -9.703802 H        1 UNL1     0.0233
     93 H         5.260912   1.893581   -8.710185 H        1 UNL1     0.0233
     94 H         4.709424   -1.724474   -9.079824 H        1 UNL1     0.0233
     95 H         6.405298   -1.82438   -8.581468 H        1 UNL1     0.0233
     96 H         5.114852   -2.236065   -7.428535 H        1 UNL1     0.0233
     97 H         4.076826   10.538584   -0.387582 H        1 UNL1     0.0280
     98 H         5.684652   11.156453   -0.652765 H        1 UNL1     0.0280
     99 H         4.51721   11.110813   -2.007287 H        1 UNL1     0.0280
     100 H         6.643092   10.667422   -3.291652 H        1 UNL1     0.2922
     101 H         4.678249   0.996902   2.437391 H        1 UNL1     0.0236
     102 H         5.99861   2.230345   2.473843 H        1 UNL1     0.0236
     103 H         6.296389   0.602494   1.947605 H        1 UNL1     0.0236
     104 H         4.322108   -0.496533   1.317415 H        1 UNL1     0.2098
     105 H         0.707124   1.258029   -0.963393 H        1 UNL1     0.0234
     106 H         1.299333   -0.427058   -0.992803 H        1 UNL1     0.0234
     107 H         0.0   -0.0   0.0 H        1 UNL1     0.0234
     108 H         1.184527   3.313436   1.652404 H        1 UNL1     0.2098
     109 H         1.068228   3.040334   -0.935318 H        1 UNL1     0.0234
     110 H         -0.173538   2.268388   -1.9721 H        1 UNL1     0.0234
     111 H         0.054699   3.981678   -2.009368 H        1 UNL1     0.0234
     112 H         -3.591689   -1.488654   1.481866 H        1 UNL1     0.0342
     113 H         -3.246164   0.16924   2.090338 H        1 UNL1     0.0342
     114 H         -4.429942   -0.08158   0.804364 H        1 UNL1     0.0342
     115 H         -2.685328   2.032419   3.236395 H        1 UNL1     0.0234
     116 H         -1.1844   2.037272   4.168048 H        1 UNL1     0.0234
     117 H         -1.66162   3.385472   3.115306 H        1 UNL1     0.0234
     118 H         0.902502   7.661363   -0.994299 H        1 UNL1     0.0309
     119 H         2.179706   7.735291   -2.247832 H        1 UNL1     0.0309
     120 H         1.429688   6.222749   -1.787566 H        1 UNL1     0.0309
     121 H         -0.341556   6.344844   2.645229 H        1 UNL1     0.0524
     122 H         -2.077402   6.136205   2.380341 H        1 UNL1     0.0524
     123 H         -1.317671   5.439033   3.833098 H        1 UNL1     0.0524
@<TRIPOS>BOND
     1     1     2    1
     2     1    42    1
     3     2     3    2
     4     3     4    1
     5     4     5    2
     6     5     7    1
     7     6    75    1
     8     6    76    1
     9     6    77    1
    10     7     9   am
    11     9    10    1
    12    10    11    2
    13    10    43    1
    14    11    14    1
    15    11    15    1
    16    12    13   ar
    17    12    27   ar
    18    12    43    1
    19    13    14    1
    20    13    30   ar
    21    14    17    2
    22    15    16    1
    23    16    17    1
    24    16    18    1
    25    16    22    1
    26    18    19    1
    27    19    20    1
    28    20    21    1
    29    21    22    1
    30    23    24    1
    31    23    88    1
    32    23    89    1
    33    24    25    1
    34    24    26    1
    35    24    90    1
    36    25    91    1
    37    25    92    1
    38    25    93    1
    39    26    94    1
    40    26    95    1
    41    26    96    1
    42    27    28   ar
    43    28    29   ar
    44    29    30   ar
    45    29    31    1
    46    30    33    1
    47    31    32    1
    48    32    33    1
    49    32    35    1
    50    34    97    1
    51    34    98    1
    52    34    99    1
    53    35    61    1
    54    36    37    1
    55    36    60    1
    56    37    38    1
    57    38    39    1
    58    39    40    1
    59    40    41    1
    60    41    42    1
    61    45   100    1
    62    47   101    1
    63    47   102    1
    64    47   103    1
    65    48   104    1
    66    49   105    1
    67    49   106    1
    68    49   107    1
    69    50   108    1
    70    51    59    1
    71    52   109    1
    72    52   110    1
    73    52   111    1
    74    53    54    1
    75    54    55    2
    76    54    56    1
    77    56   112    1
    78    56   113    1
    79    56   114    1
    80    57   115    1
    81    57   116    1
    82    57   117    1
    83    58   118    1
    84    58   119    1
    85    58   120    1
    86    59   121    1
    87    59   122    1
    88    59   123    1
    89    60    61    2
    90     1    47    1
    91     1    62    1
    92     2    63    1
    93     3    64    1
    94     4    65    1
    95     5     6    1
    96     7     8    2
    97     9    78    1
    98    15    79    1
    99    18    80    1
   100    18    81    1
   101    19    82    1
   102    19    83    1
   103    20    23    1
   104    21    84    1
   105    21    85    1
   106    22    86    1
   107    22    87    1
   108    27    45    1
   109    28    34    1
   110    32    58    1
   111    33    46    2
   112    36    51    1
   113    36    66    1
   114    37    52    1
   115    37    67    1
   116    38    53    1
   117    38    68    1
   118    42    48    1
   119    42    72    1
   120    43    44    2
   121    60    73    1
   122    61    74    1
   123    39    69    1
   124    39    57    1
   125    40    70    1
   126    40    50    1
   127    41    71    1
   128    41    49    1
