@<TRIPOS>MOLECULE
*****
 123 128 0 0 0
SMALL
GASTEIGER

@<TRIPOS>ATOM
     1 C         5.183871   1.684732   0.537058 C.3        1 UNL1     0.0009
     2 C         6.639996   2.467061   -0.302406 C.2        1 UNL1     -0.0787
     3 C         7.927588   2.348299   -0.953595 C.2        1 UNL1     -0.0649
     4 C         8.829108   3.567403   -1.706858 C.2        1 UNL1     -0.0542
     5 C         9.862906   3.841179   -2.636043 C.2        1 UNL1     0.0115
     6 C         10.99214   3.195999   -3.485688 C.3        1 UNL1     -0.0348
     7 C         9.984047   5.319404   -3.250182 C.2        1 UNL1     0.2441
     8 O         10.814425   6.132582   -2.868424 O.2        1 UNL1     -0.2702
     9 N         9.249237   5.529012   -4.430127 N.am        1 UNL1     -0.2772
     10 C         7.968351   5.934133   -4.132588 C.2        1 UNL1     0.1049
     11 C         7.106912   4.975515   -3.844147 C.2        1 UNL1     0.0801
     12 C         6.675828   7.565901   -2.745486 C.ar        1 UNL1     0.0753
     13 C         5.897395   6.450611   -2.299641 C.ar        1 UNL1     0.0305
     14 C         6.004291   5.139648   -2.936038 C.2        1 UNL1     0.0924
     15 N         7.213953   3.644129   -3.994085 N.pl3        1 UNL1     -0.3170
     16 C         5.933101   3.063336   -3.690193 C.3        1 UNL1     0.1275
     17 N         5.298651   4.032599   -2.722865 N.2        1 UNL1     -0.2557
     18 C         5.094758   3.12583   -4.963369 C.3        1 UNL1     0.0016
     19 C         5.852799   2.425254   -6.079683 C.3        1 UNL1     0.0026
     20 N         6.10083   1.046119   -5.682825 N.3        1 UNL1     -0.3018
     21 C         6.84864   0.883323   -4.434367 C.3        1 UNL1     0.0026
     22 C         6.066904   1.590589   -3.325965 C.3        1 UNL1     0.0016
     23 C         6.546577   0.214239   -6.782793 C.3        1 UNL1     0.0012
     24 C         5.398635   -0.026173   -7.775863 C.3        1 UNL1     -0.0339
     25 C         5.518952   0.887725   -9.00646 C.3        1 UNL1     -0.0615
     26 C         5.35002   -1.491947   -8.170736 C.3        1 UNL1     -0.0615
     27 C         6.481863   8.83936   -2.215581 C.ar        1 UNL1     0.1347
     28 C         5.516102   9.127062   -1.267645 C.ar        1 UNL1     0.0342
     29 C         4.794933   8.004573   -0.808193 C.ar        1 UNL1     0.1435
     30 C         5.003124   6.716796   -1.30368 C.ar        1 UNL1     0.0774
     31 O         3.746371   8.13673   0.033271 O.3        1 UNL1     -0.4436
     32 C         3.010302   6.912515   -0.109461 C.3        1 UNL1     0.3143
     33 C         4.016277   5.9032   -0.624739 C.2        1 UNL1     0.2504
     34 C         5.082339   10.50146   -0.839881 C.3        1 UNL1     -0.0327
     35 O         2.629863   6.488448   1.205334 O.2        1 UNL1     -0.4528
     36 C         -0.633566   4.59602   0.784817 C.3        1 UNL1     0.0854
     37 C         -0.945552   3.33411   -0.108363 C.3        1 UNL1     0.0236
     38 C         -1.5709   2.085708   0.680419 C.3        1 UNL1     0.1131
     39 C         -0.86616   1.553277   1.992718 C.3        1 UNL1     0.0200
     40 C         0.79246   1.386506   2.052754 C.3        1 UNL1     0.0661
     41 C         1.754282   0.598304   0.898958 C.3        1 UNL1     0.0091
     42 C         3.472412   0.935338   0.35138 C.3        1 UNL1     0.0661
     43 C         7.635104   7.339178   -3.854831 C.2        1 UNL1     0.2131
     44 O         8.054341   8.227662   -4.574256 O.2        1 UNL1     -0.2851
     45 O         7.312407   9.861092   -2.671321 O.3        1 UNL1     -0.5056
     46 O         4.015209   4.70037   -0.486715 O.2        1 UNL1     -0.2836
     47 C         5.559111   1.258839   1.981977 C.3        1 UNL1     -0.0566
     48 O         3.901686   -0.480933   0.44633 O.3        1 UNL1     -0.3909
     49 C         0.930538   0.369055   -0.348594 C.3        1 UNL1     -0.0577
     50 O         1.404178   2.598848   2.444866 O.3        1 UNL1     -0.3910
     51 O         -0.77508   4.416358   2.175906 O.3        1 UNL1     -0.3753
     52 C         0.109073   3.153195   -1.248531 C.3        1 UNL1     -0.0564
     53 O         -2.17724   1.0492   -0.219765 O.3        1 UNL1     -0.4608
     54 C         -2.401043   -0.260949   0.113929 C.2        1 UNL1     0.3042
     55 O         -1.826025   -1.253639   -0.330771 O.2        1 UNL1     -0.2512
     56 C         -3.436491   -0.439665   1.187532 C.3        1 UNL1     0.0332
     57 C         -1.591962   2.239137   3.242111 C.3        1 UNL1     -0.0567
     58 C         1.950115   7.164953   -1.206643 C.3        1 UNL1     0.0210
     59 C         -1.080868   5.603759   2.90559 C.3        1 UNL1     0.0372
     60 C         0.705902   5.206454   0.564918 C.2        1 UNL1     -0.0208
     61 C         1.61501   5.635076   1.441588 C.2        1 UNL1     0.0882
     62 H         4.719876   2.675488   0.613361 H        1 UNL1     0.0365
     63 H         6.386355   3.524833   -0.206205 H        1 UNL1     0.0576
     64 H         8.374984   1.374293   -1.163968 H        1 UNL1     0.0615
     65 H         8.350266   4.491101   -1.37074 H        1 UNL1     0.0622
     66 H         -1.365065   5.350235   0.462148 H        1 UNL1     0.0645
     67 H         -1.800377   3.650954   -0.730812 H        1 UNL1     0.0362
     68 H         -2.515939   2.536916   1.019292 H        1 UNL1     0.0741
     69 H         -1.212886   0.547751   2.190473 H        1 UNL1     0.0359
     70 H         0.886152   0.730115   2.939 H        1 UNL1     0.0600
     71 H         1.779986   -0.420744   1.332359 H        1 UNL1     0.0348
     72 H         3.362354   1.430777   1.326953 H        1 UNL1     0.0602
     73 H         0.837497   5.395901   -0.471442 H        1 UNL1     0.0628
     74 H         1.583219   5.431118   2.512396 H        1 UNL1     0.1022
     75 H         11.002177   2.087899   -3.34767 H        1 UNL1     0.0279
     76 H         10.904934   3.296834   -4.565177 H        1 UNL1     0.0279
     77 H         11.99784   3.467543   -3.132797 H        1 UNL1     0.0279
     78 H         9.181577   4.656786   -4.950435 H        1 UNL1     0.1553
     79 H         7.880204   3.203845   -4.601698 H        1 UNL1     0.1484
     80 H         4.125141   2.648557   -4.776768 H        1 UNL1     0.0317
     81 H         4.884579   4.163773   -5.242922 H        1 UNL1     0.0317
     82 H         6.792906   2.942961   -6.320702 H        1 UNL1     0.0428
     83 H         5.238044   2.483096   -6.97845 H        1 UNL1     0.0428
     84 H         6.952055   -0.159213   -4.117766 H        1 UNL1     0.0428
     85 H         7.884489   1.237361   -4.52919 H        1 UNL1     0.0428
     86 H         6.570231   1.339053   -2.41088 H        1 UNL1     0.0317
     87 H         5.080042   1.126431   -3.208677 H        1 UNL1     0.0317
     88 H         7.355244   0.742495   -7.304615 H        1 UNL1     0.0429
     89 H         6.963037   -0.734915   -6.421627 H        1 UNL1     0.0429
     90 H         4.443902   0.181847   -7.278444 H        1 UNL1     0.0308
     91 H         6.478102   0.74738   -9.513843 H        1 UNL1     0.0233
     92 H         4.70802   0.693782   -9.712424 H        1 UNL1     0.0233
     93 H         5.449599   1.950729   -8.745599 H        1 UNL1     0.0233
     94 H         4.680675   -1.63053   -9.026661 H        1 UNL1     0.0233
     95 H         6.346863   -1.833268   -8.463595 H        1 UNL1     0.0233
     96 H         4.991281   -2.115441   -7.347007 H        1 UNL1     0.0233
     97 H         4.274292   10.466596   -0.115262 H        1 UNL1     0.0280
     98 H         5.894789   11.06036   -0.357375 H        1 UNL1     0.0280
     99 H         4.734279   11.068768   -1.718579 H        1 UNL1     0.0280
     100 H         6.858785   10.620457   -2.992591 H        1 UNL1     0.2922
     101 H         4.682309   0.850942   2.484466 H        1 UNL1     0.0236
     102 H         6.025166   2.058221   2.557099 H        1 UNL1     0.0236
     103 H         6.29554   0.438031   1.993735 H        1 UNL1     0.0236
     104 H         4.304702   -0.608548   1.327388 H        1 UNL1     0.2098
     105 H         0.735774   1.26708   -0.92948 H        1 UNL1     0.0234
     106 H         1.296683   -0.427632   -0.996015 H        1 UNL1     0.0234
     107 H         0.0   -0.0   0.0 H        1 UNL1     0.0234
     108 H         1.236728   3.2505   1.736997 H        1 UNL1     0.2098
     109 H         1.129813   3.041139   -0.857064 H        1 UNL1     0.0234
     110 H         -0.120295   2.317423   -1.918322 H        1 UNL1     0.0234
     111 H         0.139983   4.026539   -1.913558 H        1 UNL1     0.0234
     112 H         -3.55139   -1.502615   1.420513 H        1 UNL1     0.0342
     113 H         -3.201009   0.133377   2.083084 H        1 UNL1     0.0342
     114 H         -4.397804   -0.073703   0.801378 H        1 UNL1     0.0342
     115 H         -2.667397   2.015115   3.263166 H        1 UNL1     0.0234
     116 H         -1.177352   1.95017   4.209916 H        1 UNL1     0.0234
     117 H         -1.604865   3.341554   3.192601 H        1 UNL1     0.0234
     118 H         1.049137   7.661758   -0.806108 H        1 UNL1     0.0309
     119 H         2.334916   7.746903   -2.050127 H        1 UNL1     0.0309
     120 H         1.557406   6.235599   -1.633479 H        1 UNL1     0.0309
     121 H         -0.23286   6.280512   2.804381 H        1 UNL1     0.0524
     122 H         -1.968871   6.122432   2.507511 H        1 UNL1     0.0524
     123 H         -1.249797   5.368489   3.952588 H        1 UNL1     0.0524
@<TRIPOS>BOND
     1     1     2    1
     2     1    42    1
     3     2     3    2
     4     3     4    1
     5     4     5    2
     6     5     7    1
     7     6    75    1
     8     6    76    1
     9     6    77    1
    10     7     9   am
    11     9    10    1
    12    10    11    2
    13    10    43    1
    14    11    14    1
    15    11    15    1
    16    12    13   ar
    17    12    27   ar
    18    12    43    1
    19    13    14    1
    20    13    30   ar
    21    14    17    2
    22    15    16    1
    23    16    17    1
    24    16    18    1
    25    16    22    1
    26    18    19    1
    27    19    20    1
    28    20    21    1
    29    21    22    1
    30    23    24    1
    31    23    88    1
    32    23    89    1
    33    24    25    1
    34    24    26    1
    35    24    90    1
    36    25    91    1
    37    25    92    1
    38    25    93    1
    39    26    94    1
    40    26    95    1
    41    26    96    1
    42    27    28   ar
    43    28    29   ar
    44    29    30   ar
    45    29    31    1
    46    30    33    1
    47    31    32    1
    48    32    33    1
    49    32    35    1
    50    34    97    1
    51    34    98    1
    52    34    99    1
    53    35    61    1
    54    36    37    1
    55    36    60    1
    56    37    38    1
    57    38    39    1
    58    39    40    1
    59    40    41    1
    60    41    42    1
    61    45   100    1
    62    47   101    1
    63    47   102    1
    64    47   103    1
    65    48   104    1
    66    49   105    1
    67    49   106    1
    68    49   107    1
    69    50   108    1
    70    51    59    1
    71    52   109    1
    72    52   110    1
    73    52   111    1
    74    53    54    1
    75    54    55    2
    76    54    56    1
    77    56   112    1
    78    56   113    1
    79    56   114    1
    80    57   115    1
    81    57   116    1
    82    57   117    1
    83    58   118    1
    84    58   119    1
    85    58   120    1
    86    59   121    1
    87    59   122    1
    88    59   123    1
    89    60    61    2
    90     1    47    1
    91     1    62    1
    92     2    63    1
    93     3    64    1
    94     4    65    1
    95     5     6    1
    96     7     8    2
    97     9    78    1
    98    15    79    1
    99    18    80    1
   100    18    81    1
   101    19    82    1
   102    19    83    1
   103    20    23    1
   104    21    84    1
   105    21    85    1
   106    22    86    1
   107    22    87    1
   108    27    45    1
   109    28    34    1
   110    32    58    1
   111    33    46    2
   112    36    51    1
   113    36    66    1
   114    37    52    1
   115    37    67    1
   116    38    53    1
   117    38    68    1
   118    42    48    1
   119    42    72    1
   120    43    44    2
   121    60    73    1
   122    61    74    1
   123    39    69    1
   124    39    57    1
   125    40    70    1
   126    40    50    1
   127    41    71    1
   128    41    49    1
