@<TRIPOS>MOLECULE
*****
 123 128 0 0 0
SMALL
GASTEIGER

@<TRIPOS>ATOM
     1 C         2.285054   -1.976527   4.56986 C.3        1 UNL1     0.0009
     2 C         2.077728   -2.259374   6.390313 C.2        1 UNL1     -0.0787
     3 C         2.357567   -1.88253   7.759885 C.2        1 UNL1     -0.0649
     4 C         1.704469   -2.543423   9.175173 C.2        1 UNL1     -0.0542
     5 C         1.464692   -2.326838   10.554548 C.2        1 UNL1     0.0115
     6 C         1.783461   -1.392263   11.753831 C.3        1 UNL1     -0.0348
     7 C         0.3721   -3.232625   11.304735 C.2        1 UNL1     0.2441
     8 O         0.670716   -4.170992   12.03056 O.2        1 UNL1     -0.2702
     9 N         -0.935702   -2.717553   11.282253 N.am        1 UNL1     -0.2772
     10 C         -1.599037   -3.140495   10.153347 C.2        1 UNL1     0.1049
     11 C         -1.376459   -2.445331   9.052698 C.2        1 UNL1     0.0801
     12 C         -2.116489   -5.182834   8.804856 C.ar        1 UNL1     0.0753
     13 C         -1.663813   -4.447996   7.663057 C.ar        1 UNL1     0.0305
     14 C         -1.403368   -3.01184   7.731441 C.2        1 UNL1     0.0924
     15 N         -0.767839   -1.258178   8.889067 N.pl3        1 UNL1     -0.3170
     16 C         -0.940373   -0.861383   7.516828 C.3        1 UNL1     0.1275
     17 N         -1.078344   -2.16107   6.762175 N.2        1 UNL1     -0.2557
     18 C         -2.294558   -0.166176   7.414009 C.3        1 UNL1     0.0016
     19 C         -2.32799   0.983113   8.408798 C.3        1 UNL1     0.0026
     20 N         -1.24209   1.9025   8.09803 N.3        1 UNL1     -0.3018
     21 C         0.097028   1.310079   8.110982 C.3        1 UNL1     0.0026
     22 C         0.109264   0.160973   7.101377 C.3        1 UNL1     0.0016
     23 C         -1.3628   3.171515   8.787721 C.3        1 UNL1     0.0012
     24 C         -2.814734   3.673116   8.74255 C.3        1 UNL1     -0.0339
     25 C         -3.022664   4.878139   9.674614 C.3        1 UNL1     -0.0615
     26 C         -3.209198   3.998062   7.31231 C.3        1 UNL1     -0.0615
     27 C         -2.47799   -6.524129   8.703047 C.ar        1 UNL1     0.1347
     28 C         -2.46657   -7.223936   7.509653 C.ar        1 UNL1     0.0342
     29 C         -1.970924   -6.494017   6.408418 C.ar        1 UNL1     0.1435
     30 C         -1.571   -5.160458   6.502756 C.ar        1 UNL1     0.0774
     31 O         -2.000081   -7.000672   5.156436 O.3        1 UNL1     -0.4436
     32 C         -1.880486   -5.855571   4.298932 C.3        1 UNL1     0.3143
     33 C         -1.214239   -4.792308   5.148521 C.2        1 UNL1     0.2504
     34 C         -3.074316   -8.579038   7.276326 C.3        1 UNL1     -0.0327
     35 O         -0.956746   -6.19737   3.258197 O.2        1 UNL1     -0.4528
     36 C         -2.022989   -4.188405   0.219238 C.3        1 UNL1     0.0854
     37 C         -2.184355   -2.627248   0.063444 C.3        1 UNL1     0.0236
     38 C         -1.347615   -1.978146   -1.14083 C.3        1 UNL1     0.1131
     39 C         0.195676   -2.294223   -1.284427 C.3        1 UNL1     0.0200
     40 C         1.187547   -2.288872   0.056692 C.3        1 UNL1     0.0661
     41 C         1.277927   -1.058335   1.220831 C.3        1 UNL1     0.0091
     42 C         1.630191   -1.144969   3.01911 C.3        1 UNL1     0.0661
     43 C         -2.273542   -4.445273   10.082979 C.2        1 UNL1     0.2131
     44 O         -2.992384   -4.819225   10.991914 O.2        1 UNL1     -0.2851
     45 O         -2.86412   -7.178612   9.870948 O.3        1 UNL1     -0.5056
     46 O         -0.525511   -3.863395   4.789874 O.2        1 UNL1     -0.2836
     47 C         3.695528   -2.434013   4.110238 C.3        1 UNL1     -0.0566
     48 O         2.619462   -0.040503   2.994322 O.3        1 UNL1     -0.3909
     49 C         0.093109   -0.134434   1.047319 C.3        1 UNL1     -0.0577
     50 O         1.182027   -3.552869   0.689151 O.3        1 UNL1     -0.3910
     51 O         -1.041786   -4.79056   -0.594446 O.3        1 UNL1     -0.3753
     52 C         -2.335532   -1.916888   1.448177 C.3        1 UNL1     -0.0564
     53 O         -1.779065   -0.583428   -1.488592 O.3        1 UNL1     -0.4608
     54 C         -0.944969   0.435678   -1.867587 C.2        1 UNL1     0.3042
     55 O         -0.559761   1.380437   -1.179922 O.2        1 UNL1     -0.2512
     56 C         -0.431479   0.301455   -3.272943 C.3        1 UNL1     0.0332
     57 C         0.345709   -3.50597   -2.317545 C.3        1 UNL1     -0.0567
     58 C         -3.322163   -5.401696   3.971678 C.3        1 UNL1     0.0210
     59 C         -1.554327   -5.576204   -1.669588 C.3        1 UNL1     0.0372
     60 C         -1.776043   -4.659457   1.609306 C.2        1 UNL1     -0.0208
     61 C         -0.902624   -5.552195   2.077178 C.2        1 UNL1     0.0882
     62 H         1.606529   -2.817242   4.381412 H        1 UNL1     0.0365
     63 H         1.490037   -3.179745   6.387715 H        1 UNL1     0.0576
     64 H         2.925984   -0.981467   8.000914 H        1 UNL1     0.0615
     65 H         1.231792   -3.469335   8.83643 H        1 UNL1     0.0622
     66 H         -3.002031   -4.597114   -0.067956 H        1 UNL1     0.0645
     67 H         -3.220473   -2.499298   -0.295233 H        1 UNL1     0.0362
     68 H         -1.829231   -2.482639   -1.992331 H        1 UNL1     0.0741
     69 H         0.647707   -1.541658   -1.916664 H        1 UNL1     0.0359
     70 H         2.176205   -2.231202   -0.437564 H        1 UNL1     0.0600
     71 H         2.095249   -0.44605   0.791821 H        1 UNL1     0.0348
     72 H         2.006087   -2.085486   2.590805 H        1 UNL1     0.0602
     73 H         -2.520775   -4.258871   2.251297 H        1 UNL1     0.0628
     74 H         -0.074575   -5.965586   1.500394 H        1 UNL1     0.1022
     75 H         1.736832   -0.321657   11.439723 H        1 UNL1     0.0279
     76 H         1.088309   -1.421595   12.589877 H        1 UNL1     0.0279
     77 H         2.827176   -1.474018   12.090988 H        1 UNL1     0.0279
     78 H         -0.902365   -1.700584   11.255034 H        1 UNL1     0.1553
     79 H         -0.624229   -0.598843   9.631756 H        1 UNL1     0.1484
     80 H         -2.436806   0.189364   6.38633 H        1 UNL1     0.0317
     81 H         -3.110824   -0.867138   7.618981 H        1 UNL1     0.0317
     82 H         -2.258944   0.62537   9.446663 H        1 UNL1     0.0428
     83 H         -3.302722   1.463814   8.320057 H        1 UNL1     0.0428
     84 H         0.885438   2.001119   7.79684 H        1 UNL1     0.0428
     85 H         0.3985   1.003206   9.122051 H        1 UNL1     0.0428
     86 H         1.132582   -0.160132   7.040557 H        1 UNL1     0.0317
     87 H         -0.096641   0.544522   6.094605 H        1 UNL1     0.0317
     88 H         -1.078434   3.018367   9.836996 H        1 UNL1     0.0429
     89 H         -0.672936   3.917856   8.373191 H        1 UNL1     0.0429
     90 H         -3.483921   2.865293   9.061647 H        1 UNL1     0.0308
     91 H         -3.768711   5.569166   9.270884 H        1 UNL1     0.0233
     92 H         -3.338905   4.54876   10.667141 H        1 UNL1     0.0233
     93 H         -2.101873   5.455192   9.822904 H        1 UNL1     0.0233
     94 H         -4.053792   4.695488   7.302615 H        1 UNL1     0.0233
     95 H         -2.372801   4.474266   6.793048 H        1 UNL1     0.0233
     96 H         -3.498501   3.097339   6.763703 H        1 UNL1     0.0233
     97 H         -2.441132   -9.379069   7.648157 H        1 UNL1     0.0280
     98 H         -4.037551   -8.69463   7.790207 H        1 UNL1     0.0280
     99 H         -3.227694   -8.733611   6.195734 H        1 UNL1     0.0280
     100 H         -2.751993   -8.112784   9.851619 H        1 UNL1     0.2922
     101 H         3.61947   -3.382658   3.579253 H        1 UNL1     0.0236
     102 H         4.418375   -2.477737   4.924219 H        1 UNL1     0.0236
     103 H         4.138444   -1.738258   3.378158 H        1 UNL1     0.0236
     104 H         3.135401   -0.125132   2.168722 H        1 UNL1     0.2098
     105 H         -0.84737   -0.536051   1.416122 H        1 UNL1     0.0234
     106 H         0.245433   0.877038   1.423681 H        1 UNL1     0.0234
     107 H         0.0   0.0   0.0 H        1 UNL1     0.0234
     108 H         1.580815   -3.436736   1.573035 H        1 UNL1     0.2098
     109 H         -3.221546   -2.262842   1.998636 H        1 UNL1     0.0234
     110 H         -1.448056   -2.016812   2.082326 H        1 UNL1     0.0234
     111 H         -2.460938   -0.831817   1.334862 H        1 UNL1     0.0234
     112 H         0.242146   1.132238   -3.503972 H        1 UNL1     0.0342
     113 H         0.05817   -0.65671   -3.440294 H        1 UNL1     0.0342
     114 H         -1.288016   0.36177   -3.958414 H        1 UNL1     0.0342
     115 H         1.269026   -3.427399   -2.907884 H        1 UNL1     0.0234
     116 H         0.338361   -4.492185   -1.849169 H        1 UNL1     0.0234
     117 H         -0.417745   -3.501725   -3.114452 H        1 UNL1     0.0234
     118 H         -3.582414   -5.578756   2.913413 H        1 UNL1     0.0309
     119 H         -4.07631   -5.873286   4.609697 H        1 UNL1     0.0309
     120 H         -3.459286   -4.321071   4.088095 H        1 UNL1     0.0309
     121 H         -0.80193   -6.323704   -1.919584 H        1 UNL1     0.0524
     122 H         -2.476707   -6.113347   -1.392584 H        1 UNL1     0.0524
     123 H         -1.75811   -4.946758   -2.531193 H        1 UNL1     0.0524
@<TRIPOS>BOND
     1     1     2    1
     2     1    42    1
     3     2     3    2
     4     3     4    1
     5     4     5    2
     6     5     7    1
     7     6    75    1
     8     6    76    1
     9     6    77    1
    10     7     9   am
    11     9    10    1
    12    10    11    2
    13    10    43    1
    14    11    14    1
    15    11    15    1
    16    12    13   ar
    17    12    27   ar
    18    12    43    1
    19    13    14    1
    20    13    30   ar
    21    14    17    2
    22    15    16    1
    23    16    17    1
    24    16    18    1
    25    16    22    1
    26    18    19    1
    27    19    20    1
    28    20    21    1
    29    21    22    1
    30    23    24    1
    31    23    88    1
    32    23    89    1
    33    24    25    1
    34    24    26    1
    35    24    90    1
    36    25    91    1
    37    25    92    1
    38    25    93    1
    39    26    94    1
    40    26    95    1
    41    26    96    1
    42    27    28   ar
    43    28    29   ar
    44    29    30   ar
    45    29    31    1
    46    30    33    1
    47    31    32    1
    48    32    33    1
    49    32    35    1
    50    34    97    1
    51    34    98    1
    52    34    99    1
    53    35    61    1
    54    36    37    1
    55    36    60    1
    56    37    38    1
    57    38    39    1
    58    39    40    1
    59    40    41    1
    60    41    42    1
    61    45   100    1
    62    47   101    1
    63    47   102    1
    64    47   103    1
    65    48   104    1
    66    49   105    1
    67    49   106    1
    68    49   107    1
    69    50   108    1
    70    51    59    1
    71    52   109    1
    72    52   110    1
    73    52   111    1
    74    53    54    1
    75    54    55    2
    76    54    56    1
    77    56   112    1
    78    56   113    1
    79    56   114    1
    80    57   115    1
    81    57   116    1
    82    57   117    1
    83    58   118    1
    84    58   119    1
    85    58   120    1
    86    59   121    1
    87    59   122    1
    88    59   123    1
    89    60    61    2
    90     1    47    1
    91     1    62    1
    92     2    63    1
    93     3    64    1
    94     4    65    1
    95     5     6    1
    96     7     8    2
    97     9    78    1
    98    15    79    1
    99    18    80    1
   100    18    81    1
   101    19    82    1
   102    19    83    1
   103    20    23    1
   104    21    84    1
   105    21    85    1
   106    22    86    1
   107    22    87    1
   108    27    45    1
   109    28    34    1
   110    32    58    1
   111    33    46    2
   112    36    51    1
   113    36    66    1
   114    37    52    1
   115    37    67    1
   116    38    53    1
   117    38    68    1
   118    42    48    1
   119    42    72    1
   120    43    44    2
   121    60    73    1
   122    61    74    1
   123    39    69    1
   124    39    57    1
   125    40    70    1
   126    40    50    1
   127    41    71    1
   128    41    49    1
