@<TRIPOS>MOLECULE
*****
 123 128 0 0 0
SMALL
GASTEIGER

@<TRIPOS>ATOM
     1 C         2.712201   -3.001427   -3.632318 C.3        1 UNL1     0.0009
     2 C         2.519117   -4.135698   -5.085998 C.2        1 UNL1     -0.0787
     3 C         2.587282   -5.46227   -5.661849 C.2        1 UNL1     -0.0649
     4 C         2.121328   -5.947437   -7.215509 C.2        1 UNL1     -0.0542
     5 C         1.753376   -7.049456   -8.026214 C.2        1 UNL1     0.0115
     6 C         1.68067   -8.600271   -8.081058 C.3        1 UNL1     -0.0348
     7 C         0.989203   -6.774358   -9.410898 C.2        1 UNL1     0.2441
     8 O         1.546668   -6.819203   -10.498899 O.2        1 UNL1     -0.2702
     9 N         -0.412592   -6.736314   -9.312537 N.am        1 UNL1     -0.2772
     10 C         -0.83856   -5.462703   -9.012888 C.2        1 UNL1     0.1049
     11 C         -0.805246   -5.122905   -7.737094 C.2        1 UNL1     0.0801
     12 C         -0.575568   -3.07089   -9.696552 C.ar        1 UNL1     0.0753
     13 C         -0.336821   -2.783853   -8.314807 C.ar        1 UNL1     0.0305
     14 C         -0.574478   -3.781415   -7.273923 C.2        1 UNL1     0.0924
     15 N         -0.620292   -5.88418   -6.64495 N.pl3        1 UNL1     -0.3170
     16 C         -0.845533   -5.056958   -5.489431 C.3        1 UNL1     0.1275
     17 N         -0.503334   -3.661482   -5.951243 N.2        1 UNL1     -0.2557
     18 C         -2.347036   -5.057222   -5.218895 C.3        1 UNL1     0.0016
     19 C         -2.812558   -6.495993   -5.061355 C.3        1 UNL1     0.0026
     20 N         -2.08151   -7.106171   -3.959411 N.3        1 UNL1     -0.3018
     21 C         -0.623938   -7.097789   -4.100054 C.3        1 UNL1     0.0026
     22 C         -0.177678   -5.6426   -4.252281 C.3        1 UNL1     0.0016
     23 C         -2.653671   -8.367719   -3.533065 C.3        1 UNL1     0.0012
     24 C         -3.578061   -8.935199   -4.621746 C.3        1 UNL1     -0.0339
     25 C         -3.143159   -8.477207   -6.023588 C.3        1 UNL1     -0.0615
     26 C         -3.633332   -10.449625   -4.520555 C.3        1 UNL1     -0.0615
     27 C         -0.463001   -2.080415   -10.669387 C.ar        1 UNL1     0.1347
     28 C         -0.158148   -0.762749   -10.378059 C.ar        1 UNL1     0.0342
     29 C         0.120631   -0.514083   -9.01732 C.ar        1 UNL1     0.1435
     30 C         0.047191   -1.504127   -8.036688 C.ar        1 UNL1     0.0774
     31 O         0.325793   0.739549   -8.557623 O.3        1 UNL1     -0.4436
     32 C         0.099662   0.648588   -7.142892 C.3        1 UNL1     0.3143
     33 C         0.328818   -0.809065   -6.798002 C.2        1 UNL1     0.2504
     34 C         -0.266089   0.397878   -11.327477 C.3        1 UNL1     -0.0327
     35 O         1.136038   1.398083   -6.4968 O.2        1 UNL1     -0.4528
     36 C         -0.383995   2.71408   -3.277214 C.3        1 UNL1     0.0854
     37 C         -1.049049   1.91613   -2.090411 C.3        1 UNL1     0.0236
     38 C         -0.417001   2.203507   -0.644841 C.3        1 UNL1     0.1131
     39 C         1.148462   2.107144   -0.439149 C.3        1 UNL1     0.0200
     40 C         2.012292   0.846037   -1.106865 C.3        1 UNL1     0.0661
     41 C         1.627605   -0.800947   -0.976209 C.3        1 UNL1     0.0091
     42 C         1.896893   -2.182829   -2.152341 C.3        1 UNL1     0.0661
     43 C         -1.034402   -4.437524   -10.048748 C.2        1 UNL1     0.2131
     44 O         -1.632329   -4.702959   -11.075765 O.2        1 UNL1     -0.2851
     45 O         -0.667252   -2.453297   -11.996292 O.3        1 UNL1     -0.5056
     46 O         0.685261   -1.287052   -5.744281 O.2        1 UNL1     -0.2836
     47 C         4.215872   -2.740777   -3.347684 C.3        1 UNL1     -0.0566
     48 O         2.460706   -3.095242   -1.128264 O.3        1 UNL1     -0.3909
     49 C         0.21278   -0.932   -0.457953 C.3        1 UNL1     -0.0577
     50 O         2.396898   1.148665   -2.432843 O.3        1 UNL1     -0.3910
     51 O         0.781852   3.438482   -2.95554 O.3        1 UNL1     -0.3753
     52 C         -1.49868   0.484946   -2.531426 C.3        1 UNL1     -0.0564
     53 O         -1.270994   1.720494   0.490818 O.3        1 UNL1     -0.4608
     54 C         -1.179528   2.144565   1.790713 C.2        1 UNL1     0.3042
     55 O         -1.785745   3.07727   2.31645 O.2        1 UNL1     -0.2512
     56 C         -0.263273   1.304571   2.634278 C.3        1 UNL1     0.0332
     57 C         1.74653   3.582797   -0.590597 C.3        1 UNL1     -0.0567
     58 C         -1.392264   0.98639   -6.915787 C.3        1 UNL1     0.0210
     59 C         0.616157   4.855182   -2.918504 C.3        1 UNL1     0.0372
     60 C         -0.064831   1.899847   -4.481505 C.2        1 UNL1     -0.0208
     61 C         1.031545   1.871931   -5.240402 C.2        1 UNL1     0.0882
     62 H         2.363674   -2.171106   -4.258263 H        1 UNL1     0.0365
     63 H         2.273252   -3.418908   -5.872276 H        1 UNL1     0.0576
     64 H         2.809356   -6.340508   -5.05153 H        1 UNL1     0.0615
     65 H         2.002623   -5.005584   -7.758007 H        1 UNL1     0.0622
     66 H         -1.154576   3.43104   -3.593789 H        1 UNL1     0.0645
     67 H         -2.048849   2.372602   -1.987491 H        1 UNL1     0.0362
     68 H         -0.658769   3.272912   -0.547668 H        1 UNL1     0.0741
     69 H         1.35484   2.002583   0.617678 H        1 UNL1     0.0359
     70 H         2.948726   0.925708   -0.522225 H        1 UNL1     0.0600
     71 H         2.214341   -1.065555   -0.07472 H        1 UNL1     0.0348
     72 H         2.586359   -1.383509   -2.460628 H        1 UNL1     0.0602
     73 H         -0.932104   1.366347   -4.782276 H        1 UNL1     0.0628
     74 H         1.978211   2.343081   -4.973796 H        1 UNL1     0.1022
     75 H         0.620708   -8.945582   -8.015668 H        1 UNL1     0.0279
     76 H         2.023732   -9.069818   -9.000244 H        1 UNL1     0.0279
     77 H         2.11957   -9.078251   -7.193024 H        1 UNL1     0.0279
     78 H         -0.719263   -7.347271   -8.558374 H        1 UNL1     0.1553
     79 H         -0.742848   -6.880056   -6.632919 H        1 UNL1     0.1484
     80 H         -2.547475   -4.470101   -4.314529 H        1 UNL1     0.0317
     81 H         -2.891816   -4.571113   -6.035328 H        1 UNL1     0.0317
     82 H         -2.680804   -7.070538   -5.990037 H        1 UNL1     0.0428
     83 H         -3.886004   -6.473105   -4.870989 H        1 UNL1     0.0428
     84 H         -0.096529   -7.489046   -3.224515 H        1 UNL1     0.0428
     85 H         -0.289023   -7.74328   -4.92376 H        1 UNL1     0.0428
     86 H         0.895821   -5.663918   -4.218599 H        1 UNL1     0.0317
     87 H         -0.448446   -5.071872   -3.355592 H        1 UNL1     0.0317
     88 H         -1.83204   -9.076858   -3.367717 H        1 UNL1     0.0429
     89 H         -3.184615   -8.26234   -2.578199 H        1 UNL1     0.0429
     90 H         -4.601578   -8.585448   -4.442027 H        1 UNL1     0.0308
     91 H         -3.248693   -7.394295   -6.138763 H        1 UNL1     0.0233
     92 H         -2.105575   -8.759059   -6.217464 H        1 UNL1     0.0233
     93 H         -3.739699   -8.941282   -6.818326 H        1 UNL1     0.0233
     94 H         -4.558432   -10.824781   -4.971426 H        1 UNL1     0.0233
     95 H         -2.791559   -10.891195   -5.06129 H        1 UNL1     0.0233
     96 H         -3.597092   -10.781565   -3.479175 H        1 UNL1     0.0233
     97 H         -0.042187   0.109807   -12.350274 H        1 UNL1     0.0280
     98 H         -1.278547   0.821792   -11.349434 H        1 UNL1     0.0280
     99 H         0.44273   1.187054   -11.027693 H        1 UNL1     0.0280
     100 H         -0.541413   -3.369741   -12.169257 H        1 UNL1     0.2922
     101 H         4.607598   -3.521921   -2.696515 H        1 UNL1     0.0236
     102 H         4.411048   -1.743928   -2.953751 H        1 UNL1     0.0236
     103 H         4.827967   -2.806154   -4.262702 H        1 UNL1     0.0236
     104 H         3.142899   -3.642472   -1.564295 H        1 UNL1     0.2098
     105 H         -0.534142   -1.101899   -1.229349 H        1 UNL1     0.0234
     106 H         0.089321   -1.650533   0.352229 H        1 UNL1     0.0234
     107 H         0.0   0.0   0.0 H        1 UNL1     0.0234
     108 H         1.74547   1.784925   -2.785806 H        1 UNL1     0.2098
     109 H         -2.439941   0.179004   -2.053787 H        1 UNL1     0.0234
     110 H         -1.587195   0.377307   -3.617853 H        1 UNL1     0.0234
     111 H         -0.760151   -0.276666   -2.247758 H        1 UNL1     0.0234
     112 H         0.061793   0.425876   2.06897 H        1 UNL1     0.0342
     113 H         0.59123   1.871776   3.000264 H        1 UNL1     0.0342
     114 H         -0.828224   0.952586   3.508407 H        1 UNL1     0.0342
     115 H         1.133667   4.327814   -0.064728 H        1 UNL1     0.0234
     116 H         2.771312   3.685824   -0.228303 H        1 UNL1     0.0234
     117 H         1.710314   3.968221   -1.624076 H        1 UNL1     0.0234
     118 H         -1.524814   1.958336   -6.409075 H        1 UNL1     0.0309
     119 H         -1.979419   0.981094   -7.839597 H        1 UNL1     0.0309
     120 H         -1.885031   0.279583   -6.239243 H        1 UNL1     0.0309
     121 H         -0.453666   5.062145   -2.919931 H        1 UNL1     0.0524
     122 H         1.039526   5.302143   -2.003615 H        1 UNL1     0.0524
     123 H         1.087365   5.311469   -3.784448 H        1 UNL1     0.0524
@<TRIPOS>BOND
     1     1     2    1
     2     1    42    1
     3     2     3    2
     4     3     4    1
     5     4     5    2
     6     5     7    1
     7     6    75    1
     8     6    76    1
     9     6    77    1
    10     7     9   am
    11     9    10    1
    12    10    11    2
    13    10    43    1
    14    11    14    1
    15    11    15    1
    16    12    13   ar
    17    12    27   ar
    18    12    43    1
    19    13    14    1
    20    13    30   ar
    21    14    17    2
    22    15    16    1
    23    16    17    1
    24    16    18    1
    25    16    22    1
    26    18    19    1
    27    19    20    1
    28    20    21    1
    29    21    22    1
    30    23    24    1
    31    23    88    1
    32    23    89    1
    33    24    25    1
    34    24    26    1
    35    24    90    1
    36    25    91    1
    37    25    92    1
    38    25    93    1
    39    26    94    1
    40    26    95    1
    41    26    96    1
    42    27    28   ar
    43    28    29   ar
    44    29    30   ar
    45    29    31    1
    46    30    33    1
    47    31    32    1
    48    32    33    1
    49    32    35    1
    50    34    97    1
    51    34    98    1
    52    34    99    1
    53    35    61    1
    54    36    37    1
    55    36    60    1
    56    37    38    1
    57    38    39    1
    58    39    40    1
    59    40    41    1
    60    41    42    1
    61    45   100    1
    62    47   101    1
    63    47   102    1
    64    47   103    1
    65    48   104    1
    66    49   105    1
    67    49   106    1
    68    49   107    1
    69    50   108    1
    70    51    59    1
    71    52   109    1
    72    52   110    1
    73    52   111    1
    74    53    54    1
    75    54    55    2
    76    54    56    1
    77    56   112    1
    78    56   113    1
    79    56   114    1
    80    57   115    1
    81    57   116    1
    82    57   117    1
    83    58   118    1
    84    58   119    1
    85    58   120    1
    86    59   121    1
    87    59   122    1
    88    59   123    1
    89    60    61    2
    90     1    47    1
    91     1    62    1
    92     2    63    1
    93     3    64    1
    94     4    65    1
    95     5     6    1
    96     7     8    2
    97     9    78    1
    98    15    79    1
    99    18    80    1
   100    18    81    1
   101    19    82    1
   102    19    83    1
   103    20    23    1
   104    21    84    1
   105    21    85    1
   106    22    86    1
   107    22    87    1
   108    27    45    1
   109    28    34    1
   110    32    58    1
   111    33    46    2
   112    36    51    1
   113    36    66    1
   114    37    52    1
   115    37    67    1
   116    38    53    1
   117    38    68    1
   118    42    48    1
   119    42    72    1
   120    43    44    2
   121    60    73    1
   122    61    74    1
   123    39    69    1
   124    39    57    1
   125    40    70    1
   126    40    50    1
   127    41    71    1
   128    41    49    1
