@<TRIPOS>MOLECULE
*****
 123 128 0 0 0
SMALL
GASTEIGER

@<TRIPOS>ATOM
     1 C         0.187443   3.554106   3.335182 C.3        1 UNL1     0.0009
     2 C         -0.836207   4.968284   3.959104 C.2        1 UNL1     -0.0787
     3 C         -1.309008   6.330409   3.828261 C.2        1 UNL1     -0.0649
     4 C         -2.470627   7.123716   4.770419 C.2        1 UNL1     -0.0542
     5 C         -3.375686   8.212314   4.824279 C.2        1 UNL1     0.0115
     6 C         -3.807324   9.524015   4.112625 C.3        1 UNL1     -0.0348
     7 C         -4.56175   8.183732   5.905679 C.2        1 UNL1     0.2441
     8 O         -4.529304   8.826464   6.946048 O.2        1 UNL1     -0.2702
     9 N         -5.750381   7.579589   5.460349 N.am        1 UNL1     -0.2772
     10 C         -5.719477   6.224949   5.699758 C.2        1 UNL1     0.1049
     11 C         -5.087066   5.489729   4.803248 C.2        1 UNL1     0.0801
     12 C         -5.238178   4.535915   7.481007 C.ar        1 UNL1     0.0753
     13 C         -4.3923   3.886105   6.526625 C.ar        1 UNL1     0.0305
     14 C         -4.393582   4.269816   5.116726 C.2        1 UNL1     0.0924
     15 N         -4.641469   5.815629   3.577785 N.pl3        1 UNL1     -0.3170
     16 C         -4.17872   4.60991   2.943465 C.3        1 UNL1     0.1275
     17 N         -3.757262   3.719324   4.086686 N.2        1 UNL1     -0.2557
     18 C         -5.392726   3.938301   2.308774 C.3        1 UNL1     0.0016
     19 C         -6.058496   4.927962   1.365953 C.3        1 UNL1     0.0026
     20 N         -5.093068   5.33071   0.352656 N.3        1 UNL1     -0.3018
     21 C         -3.862346   5.931891   0.870608 C.3        1 UNL1     0.0026
     22 C         -3.207736   4.918976   1.811557 C.3        1 UNL1     0.0016
     23 C         -5.702467   6.032079   -0.75971 C.3        1 UNL1     0.0012
     24 C         -6.026031   5.054582   -1.90057 C.3        1 UNL1     -0.0339
     25 C         -6.336933   3.64751   -1.364337 C.3        1 UNL1     -0.0615
     26 C         -7.167757   5.596721   -2.742786 C.3        1 UNL1     -0.0615
     27 C         -5.32079   4.085899   8.796598 C.ar        1 UNL1     0.1347
     28 C         -4.638234   2.976406   9.262637 C.ar        1 UNL1     0.0342
     29 C         -3.774223   2.382123   8.318457 C.ar        1 UNL1     0.1435
     30 C         -3.653743   2.843939   7.007186 C.ar        1 UNL1     0.0774
     31 O         -3.124317   1.22843   8.586083 O.3        1 UNL1     -0.4436
     32 C         -2.759312   0.710563   7.297883 C.3        1 UNL1     0.3143
     33 C         -2.738438   1.914738   6.378243 C.2        1 UNL1     0.2504
     34 C         -4.868041   2.288787   10.579629 C.3        1 UNL1     -0.0327
     35 O         -1.410477   0.236944   7.395763 O.2        1 UNL1     -0.4528
     36 C         -1.128989   -2.622447   4.915292 C.3        1 UNL1     0.0854
     37 C         -1.40295   -2.624629   3.362082 C.3        1 UNL1     0.0236
     38 C         -0.183332   -3.147186   2.461409 C.3        1 UNL1     0.1131
     39 C         1.262555   -2.540124   2.669152 C.3        1 UNL1     0.0200
     40 C         1.468883   -0.896218   2.86264 C.3        1 UNL1     0.0661
     41 C         0.817085   0.31124   1.865235 C.3        1 UNL1     0.0091
     42 C         0.261399   2.013261   2.264908 C.3        1 UNL1     0.0661
     43 C         -6.092748   5.65005   7.000724 C.2        1 UNL1     0.2131
     44 O         -7.104317   6.016474   7.570987 O.2        1 UNL1     -0.2851
     45 O         -6.132622   4.802245   9.673648 O.3        1 UNL1     -0.5056
     46 O         -2.094327   2.078988   5.366316 O.2        1 UNL1     -0.2836
     47 C         1.690775   3.805304   3.629928 C.3        1 UNL1     -0.0566
     48 O         0.979779   2.637232   1.127495 O.3        1 UNL1     -0.3909
     49 C         -0.247046   -0.304979   0.98467 C.3        1 UNL1     -0.0577
     50 O         1.327558   -0.529762   4.220381 O.3        1 UNL1     -0.3910
     51 O         0.194463   -2.908506   5.307818 O.3        1 UNL1     -0.3753
     52 C         -2.300464   -1.420098   2.927891 C.3        1 UNL1     -0.0564
     53 O         -0.575251   -3.471296   1.049432 O.3        1 UNL1     -0.4608
     54 C         0.127177   -4.280342   0.19505 C.2        1 UNL1     0.3042
     55 O         -0.283582   -4.815333   -0.833979 O.2        1 UNL1     -0.2512
     56 C         1.569244   -4.452548   0.57911 C.3        1 UNL1     0.0332
     57 C         2.05608   -3.512646   3.660462 C.3        1 UNL1     -0.0567
     58 C         -3.90766   -0.22947   6.862953 C.3        1 UNL1     0.0210
     59 C         0.323557   -3.479935   6.608845 C.3        1 UNL1     0.0372
     60 C         -1.526081   -1.374304   5.622127 C.2        1 UNL1     -0.0208
     61 C         -0.877964   -0.658114   6.54178 C.2        1 UNL1     0.0882
     62 H         -0.194494   2.939205   4.159034 H        1 UNL1     0.0365
     63 H         -1.219022   4.546943   4.890981 H        1 UNL1     0.0576
     64 H         -1.055839   6.943321   2.960302 H        1 UNL1     0.0615
     65 H         -2.590342   6.471831   5.640014 H        1 UNL1     0.0622
     66 H         -1.780888   -3.413624   5.311667 H        1 UNL1     0.0645
     67 H         -2.141721   -3.432686   3.221298 H        1 UNL1     0.0362
     68 H         -0.11889   -4.184744   2.82313 H        1 UNL1     0.0741
     69 H         1.858464   -2.752213   1.791473 H        1 UNL1     0.0359
     70 H         2.555155   -0.815937   2.666099 H        1 UNL1     0.0600
     71 H         1.649038   0.436761   1.14478 H        1 UNL1     0.0348
     72 H         0.920425   1.707697   3.090516 H        1 UNL1     0.0602
     73 H         -2.534817   -1.143977   5.384115 H        1 UNL1     0.0628
     74 H         0.172888   -0.792713   6.800296 H        1 UNL1     0.1022
     75 H         -4.910675   9.531889   3.940607 H        1 UNL1     0.0279
     76 H         -3.649387   10.448979   4.662687 H        1 UNL1     0.0279
     77 H         -3.426886   9.594269   3.083046 H        1 UNL1     0.0279
     78 H         -5.845193   7.710984   4.45545 H        1 UNL1     0.1553
     79 H         -4.966105   6.611932   3.060634 H        1 UNL1     0.1484
     80 H         -5.06529   3.036724   1.777068 H        1 UNL1     0.0317
     81 H         -6.103226   3.609741   3.074861 H        1 UNL1     0.0317
     82 H         -6.453836   5.801298   1.905307 H        1 UNL1     0.0428
     83 H         -6.922534   4.429274   0.925728 H        1 UNL1     0.0428
     84 H         -3.12166   6.151825   0.095479 H        1 UNL1     0.0428
     85 H         -4.050671   6.905593   1.343636 H        1 UNL1     0.0428
     86 H         -2.250675   5.335779   2.065124 H        1 UNL1     0.0317
     87 H         -2.949218   4.0072   1.259353 H        1 UNL1     0.0317
     88 H         -6.64039   6.481179   -0.407711 H        1 UNL1     0.0429
     89 H         -5.064564   6.853368   -1.110905 H        1 UNL1     0.0429
     90 H         -5.162572   4.989039   -2.573144 H        1 UNL1     0.0308
     91 H         -5.448667   3.009007   -1.384348 H        1 UNL1     0.0233
     92 H         -6.718395   3.699338   -0.341885 H        1 UNL1     0.0233
     93 H         -7.108796   3.137297   -1.953189 H        1 UNL1     0.0233
     94 H         -7.419862   4.887567   -3.538638 H        1 UNL1     0.0233
     95 H         -8.05685   5.736253   -2.121491 H        1 UNL1     0.0233
     96 H         -6.904941   6.553391   -3.20287 H        1 UNL1     0.0233
     97 H         -4.290403   1.373462   10.667633 H        1 UNL1     0.0280
     98 H         -4.570477   2.914956   11.430877 H        1 UNL1     0.0280
     99 H         -5.935794   2.034758   10.681949 H        1 UNL1     0.0280
     100 H         -6.190527   5.723354   9.489722 H        1 UNL1     0.2922
     101 H         1.803514   4.719603   4.212167 H        1 UNL1     0.0236
     102 H         2.308073   3.813365   2.73223 H        1 UNL1     0.0236
     103 H         2.126348   3.014616   4.263397 H        1 UNL1     0.0236
     104 H         1.806767   3.023147   1.476967 H        1 UNL1     0.2098
     105 H         -0.269267   -1.391746   1.000663 H        1 UNL1     0.0234
     106 H         -1.249649   0.095606   1.133816 H        1 UNL1     0.0234
     107 H         0.0   0.0   0.0 H        1 UNL1     0.0234
     108 H         1.870574   0.269297   4.363228 H        1 UNL1     0.2098
     109 H         -2.090273   -0.513058   3.51168 H        1 UNL1     0.0234
     110 H         -2.228042   -1.192775   1.858862 H        1 UNL1     0.0234
     111 H         -3.366523   -1.633096   3.083126 H        1 UNL1     0.0234
     112 H         1.925797   -5.435121   0.255434 H        1 UNL1     0.0342
     113 H         2.197261   -3.657835   0.179273 H        1 UNL1     0.0342
     114 H         1.63956   -4.412939   1.674852 H        1 UNL1     0.0342
     115 H         1.408077   -4.304003   4.061753 H        1 UNL1     0.0234
     116 H         2.923506   -3.996775   3.207428 H        1 UNL1     0.0234
     117 H         2.388582   -3.018045   4.589307 H        1 UNL1     0.0234
     118 H         -3.626405   -1.293845   6.946673 H        1 UNL1     0.0309
     119 H         -4.835626   -0.059503   7.418105 H        1 UNL1     0.0309
     120 H         -4.163417   -0.118398   5.803539 H        1 UNL1     0.0309
     121 H         0.652026   -2.690651   7.284489 H        1 UNL1     0.0524
     122 H         -0.634826   -3.867753   6.992429 H        1 UNL1     0.0524
     123 H         1.050159   -4.287357   6.59431 H        1 UNL1     0.0524
@<TRIPOS>BOND
     1     1     2    1
     2     1    42    1
     3     2     3    2
     4     3     4    1
     5     4     5    2
     6     5     7    1
     7     6    75    1
     8     6    76    1
     9     6    77    1
    10     7     9   am
    11     9    10    1
    12    10    11    2
    13    10    43    1
    14    11    14    1
    15    11    15    1
    16    12    13   ar
    17    12    27   ar
    18    12    43    1
    19    13    14    1
    20    13    30   ar
    21    14    17    2
    22    15    16    1
    23    16    17    1
    24    16    18    1
    25    16    22    1
    26    18    19    1
    27    19    20    1
    28    20    21    1
    29    21    22    1
    30    23    24    1
    31    23    88    1
    32    23    89    1
    33    24    25    1
    34    24    26    1
    35    24    90    1
    36    25    91    1
    37    25    92    1
    38    25    93    1
    39    26    94    1
    40    26    95    1
    41    26    96    1
    42    27    28   ar
    43    28    29   ar
    44    29    30   ar
    45    29    31    1
    46    30    33    1
    47    31    32    1
    48    32    33    1
    49    32    35    1
    50    34    97    1
    51    34    98    1
    52    34    99    1
    53    35    61    1
    54    36    37    1
    55    36    60    1
    56    37    38    1
    57    38    39    1
    58    39    40    1
    59    40    41    1
    60    41    42    1
    61    45   100    1
    62    47   101    1
    63    47   102    1
    64    47   103    1
    65    48   104    1
    66    49   105    1
    67    49   106    1
    68    49   107    1
    69    50   108    1
    70    51    59    1
    71    52   109    1
    72    52   110    1
    73    52   111    1
    74    53    54    1
    75    54    55    2
    76    54    56    1
    77    56   112    1
    78    56   113    1
    79    56   114    1
    80    57   115    1
    81    57   116    1
    82    57   117    1
    83    58   118    1
    84    58   119    1
    85    58   120    1
    86    59   121    1
    87    59   122    1
    88    59   123    1
    89    60    61    2
    90     1    47    1
    91     1    62    1
    92     2    63    1
    93     3    64    1
    94     4    65    1
    95     5     6    1
    96     7     8    2
    97     9    78    1
    98    15    79    1
    99    18    80    1
   100    18    81    1
   101    19    82    1
   102    19    83    1
   103    20    23    1
   104    21    84    1
   105    21    85    1
   106    22    86    1
   107    22    87    1
   108    27    45    1
   109    28    34    1
   110    32    58    1
   111    33    46    2
   112    36    51    1
   113    36    66    1
   114    37    52    1
   115    37    67    1
   116    38    53    1
   117    38    68    1
   118    42    48    1
   119    42    72    1
   120    43    44    2
   121    60    73    1
   122    61    74    1
   123    39    69    1
   124    39    57    1
   125    40    70    1
   126    40    50    1
   127    41    71    1
   128    41    49    1
