@<TRIPOS>MOLECULE
*****
 123 128 0 0 0
SMALL
GASTEIGER

@<TRIPOS>ATOM
     1 C         -3.779414   -3.834129   -1.013528 C.3        1 UNL1     0.0009
     2 C         -5.590112   -4.229719   -1.057333 C.2        1 UNL1     -0.0787
     3 C         -6.756638   -4.843117   -0.458163 C.2        1 UNL1     -0.0649
     4 C         -8.363333   -4.75838   -0.985142 C.2        1 UNL1     -0.0542
     5 C         -9.719493   -4.911549   -0.605081 C.2        1 UNL1     0.0115
     6 C         -10.658618   -5.421492   0.52245 C.3        1 UNL1     -0.0348
     7 C         -10.861988   -4.253246   -1.520686 C.2        1 UNL1     0.2441
     8 O         -11.54358   -4.90142   -2.30288 O.2        1 UNL1     -0.2702
     9 N         -11.205182   -2.934147   -1.17667 N.am        1 UNL1     -0.2772
     10 C         -10.391782   -2.039499   -1.833411 C.2        1 UNL1     0.1049
     11 C         -9.215067   -1.808089   -1.280227 C.2        1 UNL1     0.0801
     12 C         -9.482967   -1.474841   -4.094506 C.ar        1 UNL1     0.0753
     13 C         -8.190606   -1.441197   -3.480274 C.ar        1 UNL1     0.0305
     14 C         -8.032429   -1.477356   -2.028129 C.2        1 UNL1     0.0924
     15 N         -8.751912   -2.141984   -0.063457 N.pl3        1 UNL1     -0.3170
     16 C         -7.473371   -1.505196   0.109993 C.3        1 UNL1     0.1275
     17 N         -6.931995   -1.356826   -1.290943 N.2        1 UNL1     -0.2557
     18 C         -7.737909   -0.089637   0.613892 C.3        1 UNL1     0.0016
     19 C         -8.574842   -0.172746   1.880472 C.3        1 UNL1     0.0026
     20 N         -7.847678   -0.954241   2.871192 N.3        1 UNL1     -0.3018
     21 C         -7.493111   -2.312291   2.453638 C.3        1 UNL1     0.0026
     22 C         -6.648904   -2.204776   1.182556 C.3        1 UNL1     0.0016
     23 C         -8.412782   -0.844727   4.201346 C.3        1 UNL1     0.0012
     24 C         -8.167177   0.558853   4.777016 C.3        1 UNL1     -0.0339
     25 C         -9.489552   1.271515   5.104881 C.3        1 UNL1     -0.0615
     26 C         -7.262501   0.471671   5.993872 C.3        1 UNL1     -0.0615
     27 C         -9.632398   -1.318465   -5.470491 C.ar        1 UNL1     0.1347
     28 C         -8.571234   -1.083379   -6.326479 C.ar        1 UNL1     0.0342
     29 C         -7.303997   -1.103093   -5.706089 C.ar        1 UNL1     0.1435
     30 C         -7.13609   -1.294605   -4.334101 C.ar        1 UNL1     0.0774
     31 O         -6.181584   -0.781446   -6.385603 O.3        1 UNL1     -0.4436
     32 C         -5.223002   -0.45418   -5.368308 C.3        1 UNL1     0.3143
     33 C         -5.709508   -1.165641   -4.121974 C.2        1 UNL1     0.2504
     34 C         -8.676017   -0.658185   -7.764648 C.3        1 UNL1     -0.0327
     35 O         -3.981663   -1.065804   -5.740124 O.2        1 UNL1     -0.4528
     36 C         -1.256858   1.1684   -4.328792 C.3        1 UNL1     0.0854
     37 C         -1.008742   1.616123   -2.836979 C.3        1 UNL1     0.0236
     38 C         0.455963   1.293544   -2.269242 C.3        1 UNL1     0.1131
     39 C         1.04991   -0.165523   -2.412838 C.3        1 UNL1     0.0200
     40 C         0.09974   -1.499452   -2.096214 C.3        1 UNL1     0.0661
     41 C         -0.84977   -1.736786   -0.710678 C.3        1 UNL1     0.0091
     42 C         -2.442982   -2.620757   -0.496963 C.3        1 UNL1     0.0661
     43 C         -10.666553   -1.592302   -3.207045 C.2        1 UNL1     0.2131
     44 O         -11.788419   -1.248198   -3.532232 O.2        1 UNL1     -0.2851
     45 O         -10.920444   -1.409694   -5.993992 O.3        1 UNL1     -0.5056
     46 O         -5.062175   -1.557689   -3.176927 O.2        1 UNL1     -0.2836
     47 C         -2.943244   -5.09616   -1.357157 C.3        1 UNL1     -0.0566
     48 O         -1.998186   -3.367497   0.704558 O.3        1 UNL1     -0.3909
     49 C         -0.971608   -0.422839   0.028371 C.3        1 UNL1     -0.0577
     50 O         -0.621971   -1.885573   -3.248502 O.3        1 UNL1     -0.3910
     51 O         -0.236895   0.393128   -4.91706 O.3        1 UNL1     -0.3753
     52 C         -2.293691   1.456849   -1.960346 C.3        1 UNL1     -0.0564
     53 O         0.783305   2.026252   -1.00105 O.3        1 UNL1     -0.4608
     54 C         2.045571   2.266313   -0.524619 C.2        1 UNL1     0.3042
     55 O         2.62499   1.675751   0.386067 O.2        1 UNL1     -0.2512
     56 C         2.775701   3.345123   -1.272813 C.3        1 UNL1     0.0332
     57 C         1.953878   -0.190579   -3.732077 C.3        1 UNL1     -0.0567
     58 C         -5.327099   1.072386   -5.144057 C.3        1 UNL1     0.0210
     59 C         -0.187374   0.449512   -6.341923 C.3        1 UNL1     0.0372
     60 C         -2.53587   0.44442   -4.563616 C.2        1 UNL1     -0.0208
     61 C         -2.787417   -0.659843   -5.267939 C.2        1 UNL1     0.0882
     62 H         -3.898792   -3.273676   -1.948596 H        1 UNL1     0.0365
     63 H         -5.863786   -3.823108   -2.033161 H        1 UNL1     0.0576
     64 H         -6.715887   -5.30612   0.530309 H        1 UNL1     0.0615
     65 H         -8.283972   -4.36012   -2.000314 H        1 UNL1     0.0622
     66 H         -1.336217   2.110082   -4.890025 H        1 UNL1     0.0645
     67 H         -0.986406   2.718595   -2.888138 H        1 UNL1     0.0362
     68 H         1.057327   1.921129   -2.944536 H        1 UNL1     0.0741
     69 H         1.863088   -0.281117   -1.708716 H        1 UNL1     0.0359
     70 H         0.885101   -2.272091   -1.989923 H        1 UNL1     0.0600
     71 H         -0.126178   -2.279262   -0.071075 H        1 UNL1     0.0348
     72 H         -2.011506   -2.996167   -1.436224 H        1 UNL1     0.0602
     73 H         -3.338553   1.016525   -4.169097 H        1 UNL1     0.0628
     74 H         -2.021082   -1.331899   -5.655637 H        1 UNL1     0.1022
     75 H         -10.342843   -6.435741   0.866862 H        1 UNL1     0.0279
     76 H         -10.660451   -4.849901   1.447841 H        1 UNL1     0.0279
     77 H         -11.680109   -5.621486   0.167117 H        1 UNL1     0.0279
     78 H         -11.069718   -2.794973   -0.177491 H        1 UNL1     0.1553
     79 H         -9.342688   -2.394315   0.707417 H        1 UNL1     0.1484
     80 H         -6.778839   0.408841   0.799554 H        1 UNL1     0.0317
     81 H         -8.258468   0.504813   -0.144593 H        1 UNL1     0.0317
     82 H         -9.566947   -0.605774   1.685211 H        1 UNL1     0.0428
     83 H         -8.753279   0.847431   2.221721 H        1 UNL1     0.0428
     84 H         -6.879365   -2.849414   3.183451 H        1 UNL1     0.0428
     85 H         -8.381281   -2.947789   2.332748 H        1 UNL1     0.0428
     86 H         -6.2984   -3.20036   0.982685 H        1 UNL1     0.0317
     87 H         -5.727007   -1.648214   1.390981 H        1 UNL1     0.0317
     88 H         -9.495979   -1.007221   4.126677 H        1 UNL1     0.0429
     89 H         -8.016309   -1.62118   4.868207 H        1 UNL1     0.0429
     90 H         -7.620605   1.15885   4.039808 H        1 UNL1     0.0308
     91 H         -10.333714   0.797881   4.59482 H        1 UNL1     0.0233
     92 H         -9.673519   1.268128   6.181799 H        1 UNL1     0.0233
     93 H         -9.48336   2.324726   4.799033 H        1 UNL1     0.0233
     94 H         -7.833758   0.135436   6.865908 H        1 UNL1     0.0233
     95 H         -6.463557   -0.25318   5.814312 H        1 UNL1     0.0233
     96 H         -6.813603   1.441106   6.227658 H        1 UNL1     0.0233
     97 H         -7.852714   -1.037371   -8.362662 H        1 UNL1     0.0280
     98 H         -9.591233   -1.032887   -8.241339 H        1 UNL1     0.0280
     99 H         -8.669122   0.442424   -7.825529 H        1 UNL1     0.0280
     100 H         -11.407485   -2.161921   -5.706646 H        1 UNL1     0.2922
     101 H         -2.558993   -5.016992   -2.373887 H        1 UNL1     0.0236
     102 H         -3.486211   -6.026937   -1.196458 H        1 UNL1     0.0236
     103 H         -2.044309   -5.182335   -0.724163 H        1 UNL1     0.0236
     104 H         -1.064009   -3.618939   0.566498 H        1 UNL1     0.2098
     105 H         -1.656898   0.287154   -0.427808 H        1 UNL1     0.0234
     106 H         -1.179682   -0.517383   1.09406 H        1 UNL1     0.0234
     107 H         0.0   0.0   0.0 H        1 UNL1     0.0234
     108 H         -1.318033   -2.50696   -2.960154 H        1 UNL1     0.2098
     109 H         -2.823418   0.516152   -2.165754 H        1 UNL1     0.0234
     110 H         -2.094802   1.538387   -0.886317 H        1 UNL1     0.0234
     111 H         -3.020135   2.256324   -2.157997 H        1 UNL1     0.0234
     112 H         3.780058   3.471726   -0.857379 H        1 UNL1     0.0342
     113 H         2.817667   3.145178   -2.342441 H        1 UNL1     0.0342
     114 H         2.231444   4.289075   -1.131733 H        1 UNL1     0.0342
     115 H         2.811202   -0.869633   -3.626866 H        1 UNL1     0.0234
     116 H         1.413479   -0.481465   -4.635073 H        1 UNL1     0.0234
     117 H         2.464011   0.766975   -3.934056 H        1 UNL1     0.0234
     118 H         -4.394096   1.596047   -5.416622 H        1 UNL1     0.0309
     119 H         -6.164316   1.52941   -5.681085 H        1 UNL1     0.0309
     120 H         -5.464559   1.333877   -4.089148 H        1 UNL1     0.0309
     121 H         -0.857112   -0.319553   -6.725781 H        1 UNL1     0.0524
     122 H         -0.535791   1.419277   -6.734604 H        1 UNL1     0.0524
     123 H         0.826166   0.271742   -6.690102 H        1 UNL1     0.0524
@<TRIPOS>BOND
     1     1     2    1
     2     1    42    1
     3     2     3    2
     4     3     4    1
     5     4     5    2
     6     5     7    1
     7     6    75    1
     8     6    76    1
     9     6    77    1
    10     7     9   am
    11     9    10    1
    12    10    11    2
    13    10    43    1
    14    11    14    1
    15    11    15    1
    16    12    13   ar
    17    12    27   ar
    18    12    43    1
    19    13    14    1
    20    13    30   ar
    21    14    17    2
    22    15    16    1
    23    16    17    1
    24    16    18    1
    25    16    22    1
    26    18    19    1
    27    19    20    1
    28    20    21    1
    29    21    22    1
    30    23    24    1
    31    23    88    1
    32    23    89    1
    33    24    25    1
    34    24    26    1
    35    24    90    1
    36    25    91    1
    37    25    92    1
    38    25    93    1
    39    26    94    1
    40    26    95    1
    41    26    96    1
    42    27    28   ar
    43    28    29   ar
    44    29    30   ar
    45    29    31    1
    46    30    33    1
    47    31    32    1
    48    32    33    1
    49    32    35    1
    50    34    97    1
    51    34    98    1
    52    34    99    1
    53    35    61    1
    54    36    37    1
    55    36    60    1
    56    37    38    1
    57    38    39    1
    58    39    40    1
    59    40    41    1
    60    41    42    1
    61    45   100    1
    62    47   101    1
    63    47   102    1
    64    47   103    1
    65    48   104    1
    66    49   105    1
    67    49   106    1
    68    49   107    1
    69    50   108    1
    70    51    59    1
    71    52   109    1
    72    52   110    1
    73    52   111    1
    74    53    54    1
    75    54    55    2
    76    54    56    1
    77    56   112    1
    78    56   113    1
    79    56   114    1
    80    57   115    1
    81    57   116    1
    82    57   117    1
    83    58   118    1
    84    58   119    1
    85    58   120    1
    86    59   121    1
    87    59   122    1
    88    59   123    1
    89    60    61    2
    90     1    47    1
    91     1    62    1
    92     2    63    1
    93     3    64    1
    94     4    65    1
    95     5     6    1
    96     7     8    2
    97     9    78    1
    98    15    79    1
    99    18    80    1
   100    18    81    1
   101    19    82    1
   102    19    83    1
   103    20    23    1
   104    21    84    1
   105    21    85    1
   106    22    86    1
   107    22    87    1
   108    27    45    1
   109    28    34    1
   110    32    58    1
   111    33    46    2
   112    36    51    1
   113    36    66    1
   114    37    52    1
   115    37    67    1
   116    38    53    1
   117    38    68    1
   118    42    48    1
   119    42    72    1
   120    43    44    2
   121    60    73    1
   122    61    74    1
   123    39    69    1
   124    39    57    1
   125    40    70    1
   126    40    50    1
   127    41    71    1
   128    41    49    1
