@<TRIPOS>MOLECULE
*****
 123 128 0 0 0
SMALL
GASTEIGER

@<TRIPOS>ATOM
     1 C         2.601139   3.66942   1.35497 C.3        1 UNL1     0.0009
     2 C         4.203902   4.35584   0.724881 C.2        1 UNL1     -0.0787
     3 C         5.608445   4.647808   0.919976 C.2        1 UNL1     -0.0649
     4 C         6.7108   5.259732   -0.209944 C.2        1 UNL1     -0.0542
     5 C         8.082436   5.399255   -0.535864 C.2        1 UNL1     0.0115
     6 C         9.527256   5.223355   0.007162 C.3        1 UNL1     -0.0348
     7 C         8.489538   5.753754   -2.047681 C.2        1 UNL1     0.2441
     8 O         8.820716   6.876926   -2.401701 O.2        1 UNL1     -0.2702
     9 N         8.692545   4.639063   -2.879789 N.am        1 UNL1     -0.2772
     10 C         7.507384   4.252404   -3.462208 C.2        1 UNL1     0.1049
     11 C         6.72368   3.481225   -2.730557 C.2        1 UNL1     0.0801
     12 C         5.531497   5.137353   -4.715232 C.ar        1 UNL1     0.0753
     13 C         4.716792   4.446393   -3.762637 C.ar        1 UNL1     0.0305
     14 C         5.288551   3.489001   -2.818421 C.2        1 UNL1     0.0924
     15 N         6.979206   2.832277   -1.581601 N.pl3        1 UNL1     -0.3170
     16 C         5.846796   1.994225   -1.289076 C.3        1 UNL1     0.1275
     17 N         4.680227   2.693508   -1.943172 N.2        1 UNL1     -0.2557
     18 C         6.040935   0.688556   -2.054085 C.3        1 UNL1     0.0016
     19 C         7.382611   0.090222   -1.662307 C.3        1 UNL1     0.0026
     20 N         7.390491   -0.139019   -0.224109 N.3        1 UNL1     -0.3018
     21 C         7.149883   1.049857   0.596288 C.3        1 UNL1     0.0026
     22 C         5.795085   1.631903   0.189301 C.3        1 UNL1     0.0016
     23 C         8.493165   -0.974649   0.207719 C.3        1 UNL1     0.0012
     24 C         8.433191   -2.345559   -0.484212 C.3        1 UNL1     -0.0339
     25 C         9.695863   -3.175209   -0.198909 C.3        1 UNL1     -0.0615
     26 C         7.173083   -3.084281   -0.068041 C.3        1 UNL1     -0.0615
     27 C         4.965639   5.955624   -5.690093 C.ar        1 UNL1     0.1347
     28 C         3.60077   6.128601   -5.835912 C.ar        1 UNL1     0.0342
     29 C         2.820854   5.477548   -4.856613 C.ar        1 UNL1     0.1435
     30 C         3.375821   4.683677   -3.852122 C.ar        1 UNL1     0.0774
     31 O         1.471908   5.459434   -4.927479 O.3        1 UNL1     -0.4436
     32 C         1.079663   4.359046   -4.093115 C.3        1 UNL1     0.3143
     33 C         2.234129   4.159398   -3.132095 C.2        1 UNL1     0.2504
     34 C         2.914615   6.782964   -7.002573 C.3        1 UNL1     -0.0327
     35 O         -0.041452   4.79385   -3.31382 O.2        1 UNL1     -0.4528
     36 C         -2.123004   1.687409   -2.661703 C.3        1 UNL1     0.0854
     37 C         -1.70289   0.333703   -1.969962 C.3        1 UNL1     0.0236
     38 C         -2.618119   -0.102916   -0.7276 C.3        1 UNL1     0.1131
     39 C         -2.91161   0.931036   0.433035 C.3        1 UNL1     0.0200
     40 C         -1.688255   1.887977   1.041397 C.3        1 UNL1     0.0661
     41 C         -0.163122   1.346888   1.550123 C.3        1 UNL1     0.0091
     42 C         1.472726   2.175374   1.495234 C.3        1 UNL1     0.0661
     43 C         6.993304   4.883219   -4.687013 C.2        1 UNL1     0.2131
     44 O         7.728328   5.075222   -5.63865 O.2        1 UNL1     -0.2851
     45 O         5.831564   6.628144   -6.549935 O.3        1 UNL1     -0.5056
     46 O         2.212615   3.693132   -2.014962 O.2        1 UNL1     -0.2836
     47 C         1.966034   4.641616   2.385241 C.3        1 UNL1     -0.0566
     48 O         1.81672   1.840447   2.898305 O.3        1 UNL1     -0.3909
     49 C         0.042148   -0.068092   1.05698 C.3        1 UNL1     -0.0577
     50 O         -1.552035   3.071211   0.280395 O.3        1 UNL1     -0.3910
     51 O         -3.127531   2.428285   -2.006372 O.3        1 UNL1     -0.3753
     52 C         -0.151579   0.137787   -1.968943 C.3        1 UNL1     -0.0564
     53 O         -2.42879   -1.533589   -0.315705 O.3        1 UNL1     -0.4608
     54 C         -2.068337   -1.959628   0.935892 C.2        1 UNL1     0.3042
     55 O         -2.813806   -2.325305   1.843853 O.2        1 UNL1     -0.2512
     56 C         -0.582075   -2.018217   1.146381 C.3        1 UNL1     0.0332
     57 C         -4.314948   1.628844   0.113845 C.3        1 UNL1     -0.0567
     58 C         0.980389   3.123064   -5.017247 C.3        1 UNL1     0.0210
     59 C         -4.285015   2.697843   -2.795951 C.3        1 UNL1     0.0372
     60 C         -1.002849   2.629184   -2.932767 C.2        1 UNL1     -0.0208
     61 C         -0.913054   3.945198   -2.735819 C.2        1 UNL1     0.0882
     62 H         2.143682   3.898781   0.385002 H        1 UNL1     0.0365
     63 H         3.888494   4.755329   -0.241244 H        1 UNL1     0.0576
     64 H         6.139906   4.328647   1.819305 H        1 UNL1     0.0615
     65 H         6.076409   5.618933   -1.02481 H        1 UNL1     0.0622
     66 H         -2.508471   1.386391   -3.646005 H        1 UNL1     0.0645
     67 H         -1.960616   -0.439218   -2.714764 H        1 UNL1     0.0362
     68 H         -3.579217   -0.239848   -1.246311 H        1 UNL1     0.0741
     69 H         -3.244602   0.387646   1.30725 H        1 UNL1     0.0359
     70 H         -2.158088   2.219836   1.987012 H        1 UNL1     0.0600
     71 H         -0.367812   1.174563   2.625001 H        1 UNL1     0.0348
     72 H         0.724234   2.975615   1.402016 H        1 UNL1     0.0602
     73 H         -0.237918   2.118617   -3.463285 H        1 UNL1     0.0628
     74 H         -1.624242   4.531422   -2.152903 H        1 UNL1     0.1022
     75 H         10.091282   4.484287   -0.611455 H        1 UNL1     0.0279
     76 H         10.170024   6.099966   -0.031212 H        1 UNL1     0.0279
     77 H         9.554266   4.743482   0.996451 H        1 UNL1     0.0279
     78 H         9.031364   3.855546   -2.32537 H        1 UNL1     0.1553
     79 H         7.90449   2.631488   -1.249237 H        1 UNL1     0.1484
     80 H         5.214219   0.008383   -1.816029 H        1 UNL1     0.0317
     81 H         6.004763   0.859477   -3.135348 H        1 UNL1     0.0317
     82 H         8.220223   0.73583   -1.964812 H        1 UNL1     0.0428
     83 H         7.501532   -0.838903   -2.22055 H        1 UNL1     0.0428
     84 H         7.081488   0.836984   1.667651 H        1 UNL1     0.0428
     85 H         7.973833   1.772768   0.51998 H        1 UNL1     0.0428
     86 H         5.592513   2.415357   0.895808 H        1 UNL1     0.0317
     87 H         4.999828   0.902165   0.384608 H        1 UNL1     0.0317
     88 H         9.429913   -0.479109   -0.079052 H        1 UNL1     0.0429
     89 H         8.50773   -1.082645   1.299918 H        1 UNL1     0.0429
     90 H         8.349832   -2.197818   -1.567465 H        1 UNL1     0.0308
     91 H         10.406805   -3.11555   -1.028429 H        1 UNL1     0.0233
     92 H         10.183833   -2.833512   0.716917 H        1 UNL1     0.0233
     93 H         9.471845   -4.238131   -0.047754 H        1 UNL1     0.0233
     94 H         6.66076   -3.483753   -0.949961 H        1 UNL1     0.0233
     95 H         7.430412   -3.925175   0.582067 H        1 UNL1     0.0233
     96 H         6.48158   -2.425225   0.464346 H        1 UNL1     0.0233
     97 H         2.394667   6.061912   -7.626247 H        1 UNL1     0.0280
     98 H         2.154069   7.50706   -6.682399 H        1 UNL1     0.0280
     99 H         3.660735   7.303645   -7.624902 H        1 UNL1     0.0280
     100 H         5.429707   7.315721   -7.051304 H        1 UNL1     0.2922
     101 H         1.059387   4.199383   2.797645 H        1 UNL1     0.0236
     102 H         1.788088   5.637745   1.981452 H        1 UNL1     0.0236
     103 H         2.619849   4.804921   3.258196 H        1 UNL1     0.0236
     104 H         2.129449   0.914719   2.912395 H        1 UNL1     0.2098
     105 H         1.002349   -0.50204   1.324403 H        1 UNL1     0.0234
     106 H         -0.765512   -0.757549   1.302465 H        1 UNL1     0.0234
     107 H         0.0   0.0   0.0 H        1 UNL1     0.0234
     108 H         -0.80905   3.577479   0.661753 H        1 UNL1     0.2098
     109 H         0.214494   -0.288426   -2.913424 H        1 UNL1     0.0234
     110 H         0.398324   1.058173   -1.744801 H        1 UNL1     0.0234
     111 H         0.167612   -0.56085   -1.184105 H        1 UNL1     0.0234
     112 H         -0.283879   -1.284238   1.901166 H        1 UNL1     0.0342
     113 H         -0.246139   -3.017545   1.419025 H        1 UNL1     0.0342
     114 H         -0.09082   -1.748155   0.201447 H        1 UNL1     0.0342
     115 H         -4.184418   2.600967   -0.381259 H        1 UNL1     0.0234
     116 H         -4.977384   1.027806   -0.512238 H        1 UNL1     0.0234
     117 H         -4.875356   1.923595   1.017728 H        1 UNL1     0.0234
     118 H         1.322322   3.344177   -6.043501 H        1 UNL1     0.0309
     119 H         1.529306   2.256231   -4.635811 H        1 UNL1     0.0309
     120 H         -0.052601   2.788212   -5.161856 H        1 UNL1     0.0309
     121 H         -4.302686   1.976187   -3.612197 H        1 UNL1     0.0524
     122 H         -5.219665   2.574852   -2.223815 H        1 UNL1     0.0524
     123 H         -4.243645   3.709118   -3.190545 H        1 UNL1     0.0524
@<TRIPOS>BOND
     1     1     2    1
     2     1    42    1
     3     2     3    2
     4     3     4    1
     5     4     5    2
     6     5     7    1
     7     6    75    1
     8     6    76    1
     9     6    77    1
    10     7     9   am
    11     9    10    1
    12    10    11    2
    13    10    43    1
    14    11    14    1
    15    11    15    1
    16    12    13   ar
    17    12    27   ar
    18    12    43    1
    19    13    14    1
    20    13    30   ar
    21    14    17    2
    22    15    16    1
    23    16    17    1
    24    16    18    1
    25    16    22    1
    26    18    19    1
    27    19    20    1
    28    20    21    1
    29    21    22    1
    30    23    24    1
    31    23    88    1
    32    23    89    1
    33    24    25    1
    34    24    26    1
    35    24    90    1
    36    25    91    1
    37    25    92    1
    38    25    93    1
    39    26    94    1
    40    26    95    1
    41    26    96    1
    42    27    28   ar
    43    28    29   ar
    44    29    30   ar
    45    29    31    1
    46    30    33    1
    47    31    32    1
    48    32    33    1
    49    32    35    1
    50    34    97    1
    51    34    98    1
    52    34    99    1
    53    35    61    1
    54    36    37    1
    55    36    60    1
    56    37    38    1
    57    38    39    1
    58    39    40    1
    59    40    41    1
    60    41    42    1
    61    45   100    1
    62    47   101    1
    63    47   102    1
    64    47   103    1
    65    48   104    1
    66    49   105    1
    67    49   106    1
    68    49   107    1
    69    50   108    1
    70    51    59    1
    71    52   109    1
    72    52   110    1
    73    52   111    1
    74    53    54    1
    75    54    55    2
    76    54    56    1
    77    56   112    1
    78    56   113    1
    79    56   114    1
    80    57   115    1
    81    57   116    1
    82    57   117    1
    83    58   118    1
    84    58   119    1
    85    58   120    1
    86    59   121    1
    87    59   122    1
    88    59   123    1
    89    60    61    2
    90     1    47    1
    91     1    62    1
    92     2    63    1
    93     3    64    1
    94     4    65    1
    95     5     6    1
    96     7     8    2
    97     9    78    1
    98    15    79    1
    99    18    80    1
   100    18    81    1
   101    19    82    1
   102    19    83    1
   103    20    23    1
   104    21    84    1
   105    21    85    1
   106    22    86    1
   107    22    87    1
   108    27    45    1
   109    28    34    1
   110    32    58    1
   111    33    46    2
   112    36    51    1
   113    36    66    1
   114    37    52    1
   115    37    67    1
   116    38    53    1
   117    38    68    1
   118    42    48    1
   119    42    72    1
   120    43    44    2
   121    60    73    1
   122    61    74    1
   123    39    69    1
   124    39    57    1
   125    40    70    1
   126    40    50    1
   127    41    71    1
   128    41    49    1
