@<TRIPOS>MOLECULE
*****
 123 128 0 0 0
SMALL
GASTEIGER

@<TRIPOS>ATOM
     1 C         5.16542   1.749696   0.506541 C.3        1 UNL1     0.0009
     2 C         6.604063   2.557075   -0.339322 C.2        1 UNL1     -0.0787
     3 C         7.887761   2.459944   -1.001689 C.2        1 UNL1     -0.0649
     4 C         8.766742   3.696038   -1.753901 C.2        1 UNL1     -0.0542
     5 C         9.789165   3.989861   -2.689527 C.2        1 UNL1     0.0115
     6 C         10.919929   3.365577   -3.552641 C.3        1 UNL1     -0.0348
     7 C         9.885541   5.473655   -3.294552 C.2        1 UNL1     0.2441
     8 O         10.708082   6.295316   -2.913993 O.2        1 UNL1     -0.2702
     9 N         9.138379   5.681292   -4.467066 N.am        1 UNL1     -0.2772
     10 C         7.854674   6.067207   -4.156434 C.2        1 UNL1     0.1049
     11 C         7.008494   5.095219   -3.867571 C.2        1 UNL1     0.0801
     12 C         6.551865   7.672181   -2.747861 C.ar        1 UNL1     0.0753
     13 C         5.792058   6.543597   -2.303338 C.ar        1 UNL1     0.0305
     14 C         5.911238   5.238475   -2.949484 C.2        1 UNL1     0.0924
     15 N         7.132068   3.766421   -4.027425 N.pl3        1 UNL1     -0.3170
     16 C         5.861609   3.166491   -3.717149 C.3        1 UNL1     0.1275
     17 N         5.222204   4.120666   -2.738152 N.2        1 UNL1     -0.2557
     18 C         5.01213   3.226267   -4.983053 C.3        1 UNL1     0.0016
     19 C         5.770306   2.543404   -6.110198 C.3        1 UNL1     0.0026
     20 N         6.03996   1.165091   -5.724751 N.3        1 UNL1     -0.3018
     21 C         6.800054   1.003977   -4.483515 C.3        1 UNL1     0.0026
     22 C         6.018031   1.693265   -3.364043 C.3        1 UNL1     0.0016
     23 C         6.487766   0.346644   -6.833921 C.3        1 UNL1     0.0012
     24 C         5.333942   0.093881   -7.817057 C.3        1 UNL1     -0.0339
     25 C         5.352727   1.102426   -8.977462 C.3        1 UNL1     -0.0615
     26 C         5.382866   -1.338287   -8.320329 C.3        1 UNL1     -0.0615
     27 C         6.345255   8.939349   -2.207753 C.ar        1 UNL1     0.1347
     28 C         5.38352   9.207728   -1.250106 C.ar        1 UNL1     0.0342
     29 C         4.681177   8.072623   -0.792489 C.ar        1 UNL1     0.1435
     30 C         4.902483   6.791098   -1.298394 C.ar        1 UNL1     0.0774
     31 O         3.637857   8.185076   0.058302 O.3        1 UNL1     -0.4436
     32 C         2.917052   6.952089   -0.086803 C.3        1 UNL1     0.3143
     33 C         3.932165   5.959821   -0.617051 C.2        1 UNL1     0.2504
     34 C         4.93496   10.573293   -0.809509 C.3        1 UNL1     -0.0327
     35 O         2.553066   6.514167   1.228108 O.2        1 UNL1     -0.4528
     36 C         -0.68814   4.581027   0.821114 C.3        1 UNL1     0.0854
     37 C         -0.990543   3.321058   -0.078081 C.3        1 UNL1     0.0236
     38 C         -1.592704   2.059133   0.707216 C.3        1 UNL1     0.1131
     39 C         -0.870219   1.527421   2.010124 C.3        1 UNL1     0.0200
     40 C         0.790915   1.382498   2.055616 C.3        1 UNL1     0.0661
     41 C         1.753711   0.615001   0.888747 C.3        1 UNL1     0.0091
     42 C         3.462656   0.978691   0.329607 C.3        1 UNL1     0.0661
     43 C         7.504983   7.465768   -3.86644 C.2        1 UNL1     0.2131
     44 O         7.90643   8.364589   -4.583167 O.2        1 UNL1     -0.2851
     45 O         7.158335   9.97515   -2.663227 O.3        1 UNL1     -0.5056
     46 O         3.948281   4.756187   -0.48721 O.2        1 UNL1     -0.2836
     47 C         5.558107   1.319206   1.945449 C.3        1 UNL1     -0.0566
     48 O         3.911558   -0.432303   0.411446 O.3        1 UNL1     -0.3909
     49 C         0.922932   0.383089   -0.353637 C.3        1 UNL1     -0.0577
     50 O         1.38958   2.600277   2.451011 O.3        1 UNL1     -0.3910
     51 O         -0.81587   4.390175   2.212046 O.3        1 UNL1     -0.3753
     52 C         0.05705   3.161932   -1.227941 C.3        1 UNL1     -0.0564
     53 O         -2.192491   1.020642   -0.19507 O.3        1 UNL1     -0.4608
     54 C         -2.415175   -0.289707   0.138588 C.2        1 UNL1     0.3042
     55 O         -1.841419   -1.282107   -0.308386 O.2        1 UNL1     -0.2512
     56 C         -3.44736   -0.469094   1.215216 C.3        1 UNL1     0.0332
     57 C         -1.594876   2.19511   3.26998 C.3        1 UNL1     -0.0567
     58 C         1.844659   7.197635   -1.173638 C.3        1 UNL1     0.0210
     59 C         -1.170117   5.56037   2.947584 C.3        1 UNL1     0.0372
     60 C         0.641219   5.210818   0.594554 C.2        1 UNL1     -0.0208
     61 C         1.551659   5.645707   1.466745 C.2        1 UNL1     0.0882
     62 H         4.688881   2.733612   0.593332 H        1 UNL1     0.0365
     63 H         6.337121   3.610685   -0.233879 H        1 UNL1     0.0576
     64 H         8.346384   1.493452   -1.222294 H        1 UNL1     0.0615
     65 H         8.278376   4.610964   -1.407646 H        1 UNL1     0.0622
     66 H         -1.432254   5.327513   0.509507 H        1 UNL1     0.0645
     67 H         -1.85458   3.630577   -0.691432 H        1 UNL1     0.0362
     68 H         -2.540881   2.495355   1.056778 H        1 UNL1     0.0741
     69 H         -1.201864   0.516037   2.203827 H        1 UNL1     0.0359
     70 H         0.9006   0.721502   2.936589 H        1 UNL1     0.0600
     71 H         1.796556   -0.406491   1.314983 H        1 UNL1     0.0348
     72 H         3.353972   1.466067   1.309386 H        1 UNL1     0.0602
     73 H         0.761799   5.408947   -0.441522 H        1 UNL1     0.0628
     74 H         1.531345   5.434176   2.536361 H        1 UNL1     0.1022
     75 H         10.964436   2.260193   -3.400392 H        1 UNL1     0.0279
     76 H         10.809138   3.449188   -4.631438 H        1 UNL1     0.0279
     77 H         11.924011   3.670412   -3.223099 H        1 UNL1     0.0279
     78 H         9.078118   4.81174   -4.992733 H        1 UNL1     0.1553
     79 H         7.799149   3.339186   -4.643384 H        1 UNL1     0.1484
     80 H         4.050527   2.734802   -4.791873 H        1 UNL1     0.0317
     81 H         4.785837   4.263148   -5.253829 H        1 UNL1     0.0317
     82 H         6.701418   3.075267   -6.355279 H        1 UNL1     0.0428
     83 H         5.147509   2.599017   -7.003552 H        1 UNL1     0.0428
     84 H         6.919959   -0.039176   -4.174861 H        1 UNL1     0.0428
     85 H         7.830275   1.372494   -4.584295 H        1 UNL1     0.0428
     86 H         6.532132   1.442376   -2.454789 H        1 UNL1     0.0317
     87 H         5.038444   1.215146   -3.241944 H        1 UNL1     0.0317
     88 H         7.282832   0.890543   -7.360549 H        1 UNL1     0.0429
     89 H         6.922624   -0.59789   -6.482454 H        1 UNL1     0.0429
     90 H         4.380437   0.191863   -7.284664 H        1 UNL1     0.0308
     91 H         6.301839   1.066198   -9.520578 H        1 UNL1     0.0233
     92 H         4.53364   0.906029   -9.673259 H        1 UNL1     0.0233
     93 H         5.221601   2.135937   -8.634684 H        1 UNL1     0.0233
     94 H         4.687392   -1.46877   -9.156466 H        1 UNL1     0.0233
     95 H         6.388812   -1.574268   -8.678587 H        1 UNL1     0.0233
     96 H         5.11326   -2.047459   -7.532703 H        1 UNL1     0.0233
     97 H         4.139674   10.522614   -0.071823 H        1 UNL1     0.0280
     98 H         5.746236   11.14328   -0.338126 H        1 UNL1     0.0280
     99 H         4.563377   11.138374   -1.679972 H        1 UNL1     0.0280
     100 H         6.691866   10.725573   -2.987102 H        1 UNL1     0.2922
     101 H         4.694123   0.884827   2.447945 H        1 UNL1     0.0236
     102 H         6.007028   2.124267   2.526251 H        1 UNL1     0.0236
     103 H         6.314673   0.516834   1.945724 H        1 UNL1     0.0236
     104 H         4.328815   -0.558823   1.286008 H        1 UNL1     0.2098
     105 H         0.712091   1.282184   -0.92721 H        1 UNL1     0.0234
     106 H         1.293957   -0.404776   -1.009027 H        1 UNL1     0.0234
     107 H         0.0   -0.0   0.0 H        1 UNL1     0.0234
     108 H         1.19022   3.259732   1.758809 H        1 UNL1     0.2098
     109 H         1.080914   3.048557   -0.845109 H        1 UNL1     0.0234
     110 H         -0.173257   2.33528   -1.908638 H        1 UNL1     0.0234
     111 H         0.07963   4.045272   -1.879974 H        1 UNL1     0.0234
     112 H         -3.572883   -1.533272   1.436838 H        1 UNL1     0.0342
     113 H         -3.201252   0.091204   2.11596 H        1 UNL1     0.0342
     114 H         -4.406414   -0.088255   0.837934 H        1 UNL1     0.0342
     115 H         -2.659066   1.926224   3.31885 H        1 UNL1     0.0234
     116 H         -1.145785   1.933983   4.230281 H        1 UNL1     0.0234
     117 H         -1.655619   3.295429   3.210388 H        1 UNL1     0.0234
     118 H         0.942298   7.683859   -0.763347 H        1 UNL1     0.0309
     119 H         2.216045   7.786434   -2.018381 H        1 UNL1     0.0309
     120 H         1.457589   6.26586   -1.600344 H        1 UNL1     0.0309
     121 H         -0.371583   6.289295   2.812051 H        1 UNL1     0.0524
     122 H         -2.103633   6.018549   2.580627 H        1 UNL1     0.0524
     123 H         -1.284908   5.321684   4.001124 H        1 UNL1     0.0524
@<TRIPOS>BOND
     1     1     2    1
     2     1    42    1
     3     2     3    2
     4     3     4    1
     5     4     5    2
     6     5     7    1
     7     6    75    1
     8     6    76    1
     9     6    77    1
    10     7     9   am
    11     9    10    1
    12    10    11    2
    13    10    43    1
    14    11    14    1
    15    11    15    1
    16    12    13   ar
    17    12    27   ar
    18    12    43    1
    19    13    14    1
    20    13    30   ar
    21    14    17    2
    22    15    16    1
    23    16    17    1
    24    16    18    1
    25    16    22    1
    26    18    19    1
    27    19    20    1
    28    20    21    1
    29    21    22    1
    30    23    24    1
    31    23    88    1
    32    23    89    1
    33    24    25    1
    34    24    26    1
    35    24    90    1
    36    25    91    1
    37    25    92    1
    38    25    93    1
    39    26    94    1
    40    26    95    1
    41    26    96    1
    42    27    28   ar
    43    28    29   ar
    44    29    30   ar
    45    29    31    1
    46    30    33    1
    47    31    32    1
    48    32    33    1
    49    32    35    1
    50    34    97    1
    51    34    98    1
    52    34    99    1
    53    35    61    1
    54    36    37    1
    55    36    60    1
    56    37    38    1
    57    38    39    1
    58    39    40    1
    59    40    41    1
    60    41    42    1
    61    45   100    1
    62    47   101    1
    63    47   102    1
    64    47   103    1
    65    48   104    1
    66    49   105    1
    67    49   106    1
    68    49   107    1
    69    50   108    1
    70    51    59    1
    71    52   109    1
    72    52   110    1
    73    52   111    1
    74    53    54    1
    75    54    55    2
    76    54    56    1
    77    56   112    1
    78    56   113    1
    79    56   114    1
    80    57   115    1
    81    57   116    1
    82    57   117    1
    83    58   118    1
    84    58   119    1
    85    58   120    1
    86    59   121    1
    87    59   122    1
    88    59   123    1
    89    60    61    2
    90     1    47    1
    91     1    62    1
    92     2    63    1
    93     3    64    1
    94     4    65    1
    95     5     6    1
    96     7     8    2
    97     9    78    1
    98    15    79    1
    99    18    80    1
   100    18    81    1
   101    19    82    1
   102    19    83    1
   103    20    23    1
   104    21    84    1
   105    21    85    1
   106    22    86    1
   107    22    87    1
   108    27    45    1
   109    28    34    1
   110    32    58    1
   111    33    46    2
   112    36    51    1
   113    36    66    1
   114    37    52    1
   115    37    67    1
   116    38    53    1
   117    38    68    1
   118    42    48    1
   119    42    72    1
   120    43    44    2
   121    60    73    1
   122    61    74    1
   123    39    69    1
   124    39    57    1
   125    40    70    1
   126    40    50    1
   127    41    71    1
   128    41    49    1
