@<TRIPOS>MOLECULE
*****
 123 128 0 0 0
SMALL
GASTEIGER

@<TRIPOS>ATOM
     1 C         1.443589   0.567392   -4.561299 C.3        1 UNL1     0.0009
     2 C         2.953923   1.308181   -5.340503 C.2        1 UNL1     -0.0787
     3 C         3.570709   2.322775   -6.168888 C.2        1 UNL1     -0.0649
     4 C         5.22093   2.572154   -6.453383 C.2        1 UNL1     -0.0542
     5 C         6.197228   3.505025   -6.881952 C.2        1 UNL1     0.0115
     6 C         6.401428   4.897121   -7.540506 C.3        1 UNL1     -0.0348
     7 C         7.738407   3.237726   -6.520968 C.2        1 UNL1     0.2441
     8 O         8.545146   2.800397   -7.329943 O.2        1 UNL1     -0.2702
     9 N         8.159351   3.7827   -5.295423 N.am        1 UNL1     -0.2772
     10 C         7.934268   2.891878   -4.27117 C.2        1 UNL1     0.1049
     11 C         6.712342   2.87754   -3.770256 C.2        1 UNL1     0.0801
     12 C         8.275614   0.504172   -3.608088 C.ar        1 UNL1     0.0753
     13 C         6.884344   0.480183   -3.272828 C.ar        1 UNL1     0.0305
     14 C         6.088865   1.704701   -3.219709 C.2        1 UNL1     0.0924
     15 N         5.694761   3.736953   -3.950435 N.pl3        1 UNL1     -0.3170
     16 C         4.639469   3.364227   -3.046172 C.3        1 UNL1     0.1275
     17 N         4.827559   1.881518   -2.836604 N.2        1 UNL1     -0.2557
     18 C         4.94068   4.023254   -1.703542 C.3        1 UNL1     0.0016
     19 C         5.083334   5.521615   -1.918378 C.3        1 UNL1     0.0026
     20 N         3.843636   6.032818   -2.486577 N.3        1 UNL1     -0.3018
     21 C         3.437573   5.414584   -3.750407 C.3        1 UNL1     0.0026
     22 C         3.295733   3.910539   -3.510355 C.3        1 UNL1     0.0016
     23 C         3.761978   7.47947   -2.452323 C.3        1 UNL1     0.0012
     24 C         2.47908   7.929717   -1.735938 C.3        1 UNL1     -0.0339
     25 C         2.695492   8.05156   -0.218579 C.3        1 UNL1     -0.0615
     26 C         1.977517   9.231964   -2.33541 C.3        1 UNL1     -0.0615
     27 C         9.054601   -0.648456   -3.539189 C.ar        1 UNL1     0.1347
     28 C         8.565044   -1.869978   -3.112262 C.ar        1 UNL1     0.0342
     29 C         7.181655   -1.880729   -2.834262 C.ar        1 UNL1     0.1435
     30 C         6.38103   -0.742155   -2.933595 C.ar        1 UNL1     0.0774
     31 O         6.577985   -2.966273   -2.303054 O.3        1 UNL1     -0.4436
     32 C         5.357878   -2.462815   -1.738482 C.3        1 UNL1     0.3143
     33 C         5.073206   -1.178906   -2.491313 C.2        1 UNL1     0.2504
     34 C         9.389478   -3.080692   -2.773762 C.3        1 UNL1     -0.0327
     35 O         4.317223   -3.386533   -2.080585 O.2        1 UNL1     -0.4528
     36 C         1.785655   -3.193821   0.741137 C.3        1 UNL1     0.0854
     37 C         0.995763   -1.942689   1.287272 C.3        1 UNL1     0.0236
     38 C         -0.599208   -2.107829   1.310535 C.3        1 UNL1     0.1131
     39 C         -1.357221   -2.594324   0.010147 C.3        1 UNL1     0.0200
     40 C         -0.953091   -1.974802   -1.484948 C.3        1 UNL1     0.0661
     41 C         -0.798232   -0.330041   -1.87016 C.3        1 UNL1     0.0091
     42 C         0.305273   0.51258   -3.069189 C.3        1 UNL1     0.0661
     43 C         8.882152   1.815844   -3.945561 C.2        1 UNL1     0.2131
     44 O         10.075032   2.046544   -3.864623 O.2        1 UNL1     -0.2851
     45 O         10.389402   -0.549047   -3.92631 O.3        1 UNL1     -0.5056
     46 O         4.005057   -0.647896   -2.698531 O.2        1 UNL1     -0.2836
     47 C         0.60599   -0.192838   -5.62453 C.3        1 UNL1     -0.0566
     48 O         -0.776139   1.339931   -3.656685 O.3        1 UNL1     -0.3909
     49 C         -0.747688   0.469024   -0.587025 C.3        1 UNL1     -0.0577
     50 O         0.109262   -2.708005   -2.060746 O.3        1 UNL1     -0.3910
     51 O         1.000016   -4.222973   0.183419 O.3        1 UNL1     -0.3753
     52 C         1.686475   -0.598297   0.886678 C.3        1 UNL1     -0.0564
     53 O         -1.298006   -1.073334   2.143498 O.3        1 UNL1     -0.4608
     54 C         -0.951241   0.25003   2.223452 C.2        1 UNL1     0.3042
     55 O         -1.689411   1.22503   2.088111 O.2        1 UNL1     -0.2512
     56 C         0.492814   0.473334   2.572098 C.3        1 UNL1     0.0332
     57 C         -1.557244   -4.176513   0.13199 C.3        1 UNL1     -0.0567
     58 C         5.66819   -2.11781   -0.263285 C.3        1 UNL1     0.0210
     59 C         -0.323637   -3.835466   -0.182158 C.3        1 UNL1     0.0372
     60 C         2.850551   -2.88133   -0.250582 C.2        1 UNL1     -0.0208
     61 C         3.152962   -3.469777   -1.408607 C.2        1 UNL1     0.0882
     62 H         2.083747   -0.17869   -4.075222 H        1 UNL1     0.0365
     63 H         3.714162   0.584407   -5.03941 H        1 UNL1     0.0576
     64 H         2.995414   3.157816   -6.574904 H        1 UNL1     0.0615
     65 H         5.690209   1.655661   -6.08555 H        1 UNL1     0.0622
     66 H         2.303574   -3.599188   1.621752 H        1 UNL1     0.0645
     67 H         1.230568   -1.927278   2.365785 H        1 UNL1     0.0362
     68 H         -0.687729   -2.93812   2.027685 H        1 UNL1     0.0741
     69 H         -2.403598   -2.334487   0.099523 H        1 UNL1     0.0359
     70 H         -1.845374   -2.278978   -2.064921 H        1 UNL1     0.0600
     71 H         -1.827412   -0.115501   -2.219041 H        1 UNL1     0.0348
     72 H         0.272202   -0.542583   -3.377171 H        1 UNL1     0.0602
     73 H         3.491502   -2.134996   0.148687 H        1 UNL1     0.0628
     74 H         2.519577   -4.200292   -1.912997 H        1 UNL1     0.1022
     75 H         7.101577   5.519455   -6.932619 H        1 UNL1     0.0279
     76 H         6.871761   4.905569   -8.521213 H        1 UNL1     0.0279
     77 H         5.491074   5.514056   -7.52184 H        1 UNL1     0.0279
     78 H         7.623284   4.623984   -5.093061 H        1 UNL1     0.1553
     79 H         5.809999   4.672098   -4.295624 H        1 UNL1     0.1484
     80 H         4.128559   3.794628   -1.002859 H        1 UNL1     0.0317
     81 H         5.857551   3.615553   -1.264477 H        1 UNL1     0.0317
     82 H         5.942196   5.760578   -2.56271 H        1 UNL1     0.0428
     83 H         5.299609   5.971568   -0.948936 H        1 UNL1     0.0428
     84 H         2.46458   5.758914   -4.114458 H        1 UNL1     0.0428
     85 H         4.130314   5.660703   -4.567017 H        1 UNL1     0.0428
     86 H         2.871748   3.511927   -4.413313 H        1 UNL1     0.0317
     87 H         2.517912   3.722525   -2.760195 H        1 UNL1     0.0317
     88 H         4.626619   7.857158   -1.891036 H        1 UNL1     0.0429
     89 H         3.822453   7.906291   -3.461749 H        1 UNL1     0.0429
     90 H         1.688414   7.192155   -1.917772 H        1 UNL1     0.0308
     91 H         1.881783   7.577654   0.33855 H        1 UNL1     0.0233
     92 H         3.643974   7.595208   0.074223 H        1 UNL1     0.0233
     93 H         2.742914   9.095579   0.114004 H        1 UNL1     0.0233
     94 H         2.128204   10.055608   -1.629195 H        1 UNL1     0.0233
     95 H         2.535725   9.463105   -3.246969 H        1 UNL1     0.0233
     96 H         0.912726   9.175454   -2.578297 H        1 UNL1     0.0233
     97 H         9.235014   -3.405326   -1.749075 H        1 UNL1     0.0280
     98 H         9.13598   -3.943309   -3.403751 H        1 UNL1     0.0280
     99 H         10.458821   -2.847431   -2.904877 H        1 UNL1     0.0280
     100 H         10.58287   -0.927958   -4.765726 H        1 UNL1     0.2922
     101 H         1.233693   -0.924614   -6.132614 H        1 UNL1     0.0236
     102 H         0.100646   0.469945   -6.326192 H        1 UNL1     0.0236
     103 H         -0.202613   -0.787173   -5.167233 H        1 UNL1     0.0236
     104 H         -0.614949   2.266867   -3.392531 H        1 UNL1     0.2098
     105 H         -0.463895   1.510322   -0.717298 H        1 UNL1     0.0234
     106 H         -1.642766   0.395839   0.030557 H        1 UNL1     0.0234
     107 H         0.0   0.0   0.0 H        1 UNL1     0.0234
     108 H         0.868338   -2.647608   -1.449253 H        1 UNL1     0.2098
     109 H         1.848836   -0.520949   -0.197466 H        1 UNL1     0.0234
     110 H         1.144972   0.285799   1.240079 H        1 UNL1     0.0234
     111 H         2.680366   -0.502029   1.343688 H        1 UNL1     0.0234
     112 H         0.678979   1.541353   2.720506 H        1 UNL1     0.0342
     113 H         0.796803   -0.101343   3.4457 H        1 UNL1     0.0342
     114 H         1.106169   0.139233   1.723961 H        1 UNL1     0.0342
     115 H         -0.667785   -4.669808   0.547574 H        1 UNL1     0.0234
     116 H         -2.411927   -4.470058   0.744687 H        1 UNL1     0.0234
     117 H         -1.646764   -4.685015   -0.843383 H        1 UNL1     0.0234
     118 H         5.397275   -1.076632   -0.015173 H        1 UNL1     0.0309
     119 H         5.181846   -2.793506   0.447425 H        1 UNL1     0.0309
     120 H         6.739405   -2.160596   -0.037954 H        1 UNL1     0.0309
     121 H         -0.255463   -3.258077   -1.10375 H        1 UNL1     0.0524
     122 H         -0.973678   -4.703618   -0.381646 H        1 UNL1     0.0524
     123 H         -0.770077   -3.23415   0.604737 H        1 UNL1     0.0524
@<TRIPOS>BOND
     1     1     2    1
     2     1    42    1
     3     2     3    2
     4     3     4    1
     5     4     5    2
     6     5     7    1
     7     6    75    1
     8     6    76    1
     9     6    77    1
    10     7     9   am
    11     9    10    1
    12    10    11    2
    13    10    43    1
    14    11    14    1
    15    11    15    1
    16    12    13   ar
    17    12    27   ar
    18    12    43    1
    19    13    14    1
    20    13    30   ar
    21    14    17    2
    22    15    16    1
    23    16    17    1
    24    16    18    1
    25    16    22    1
    26    18    19    1
    27    19    20    1
    28    20    21    1
    29    21    22    1
    30    23    24    1
    31    23    88    1
    32    23    89    1
    33    24    25    1
    34    24    26    1
    35    24    90    1
    36    25    91    1
    37    25    92    1
    38    25    93    1
    39    26    94    1
    40    26    95    1
    41    26    96    1
    42    27    28   ar
    43    28    29   ar
    44    29    30   ar
    45    29    31    1
    46    30    33    1
    47    31    32    1
    48    32    33    1
    49    32    35    1
    50    34    97    1
    51    34    98    1
    52    34    99    1
    53    35    61    1
    54    36    37    1
    55    36    60    1
    56    37    38    1
    57    38    39    1
    58    39    40    1
    59    40    41    1
    60    41    42    1
    61    45   100    1
    62    47   101    1
    63    47   102    1
    64    47   103    1
    65    48   104    1
    66    49   105    1
    67    49   106    1
    68    49   107    1
    69    50   108    1
    70    51    59    1
    71    52   109    1
    72    52   110    1
    73    52   111    1
    74    53    54    1
    75    54    55    2
    76    54    56    1
    77    56   112    1
    78    56   113    1
    79    56   114    1
    80    57   115    1
    81    57   116    1
    82    57   117    1
    83    58   118    1
    84    58   119    1
    85    58   120    1
    86    59   121    1
    87    59   122    1
    88    59   123    1
    89    60    61    2
    90     1    47    1
    91     1    62    1
    92     2    63    1
    93     3    64    1
    94     4    65    1
    95     5     6    1
    96     7     8    2
    97     9    78    1
    98    15    79    1
    99    18    80    1
   100    18    81    1
   101    19    82    1
   102    19    83    1
   103    20    23    1
   104    21    84    1
   105    21    85    1
   106    22    86    1
   107    22    87    1
   108    27    45    1
   109    28    34    1
   110    32    58    1
   111    33    46    2
   112    36    51    1
   113    36    66    1
   114    37    52    1
   115    37    67    1
   116    38    53    1
   117    38    68    1
   118    42    48    1
   119    42    72    1
   120    43    44    2
   121    60    73    1
   122    61    74    1
   123    39    69    1
   124    39    57    1
   125    40    70    1
   126    40    50    1
   127    41    71    1
   128    41    49    1
