@<TRIPOS>MOLECULE
*****
 123 128 0 0 0
SMALL
GASTEIGER

@<TRIPOS>ATOM
     1 C         -0.843701   4.052594   0.24287 C.3        1 UNL1     0.0009
     2 C         -2.307578   4.84905   1.055124 C.2        1 UNL1     -0.0787
     3 C         -3.61618   5.461524   0.963025 C.2        1 UNL1     -0.0649
     4 C         -4.628317   5.949195   2.229561 C.2        1 UNL1     -0.0542
     5 C         -5.959342   6.268463   2.594963 C.2        1 UNL1     0.0115
     6 C         -7.383213   6.545019   2.038697 C.3        1 UNL1     -0.0348
     7 C         -6.359441   6.268391   4.149604 C.2        1 UNL1     0.2441
     8 O         -6.478998   7.293766   4.805987 O.2        1 UNL1     -0.2702
     9 N         -6.817279   5.033013   4.639886 N.am        1 UNL1     -0.2772
     10 C         -5.760452   4.269463   5.079692 C.2        1 UNL1     0.1049
     11 C         -5.110543   3.587124   4.154351 C.2        1 UNL1     0.0801
     12 C         -3.710249   4.356571   6.51022 C.ar        1 UNL1     0.0753
     13 C         -3.003739   3.804103   5.394769 C.ar        1 UNL1     0.0305
     14 C         -3.70783   3.279667   4.226747 C.2        1 UNL1     0.0924
     15 N         -5.434491   3.344851   2.872599 N.pl3        1 UNL1     -0.3170
     16 C         -4.477027   2.408304   2.346866 C.3        1 UNL1     0.1275
     17 N         -3.227677   2.649474   3.15846 N.2        1 UNL1     -0.2557
     18 C         -4.960669   1.010081   2.719378 C.3        1 UNL1     0.0016
     19 C         -6.373965   0.827122   2.189559 C.3        1 UNL1     0.0026
     20 N         -6.359008   1.008713   0.744627 N.3        1 UNL1     -0.3018
     21 C         -5.850275   2.302982   0.285905 C.3        1 UNL1     0.0026
     22 C         -4.428059   2.463793   0.825659 C.3        1 UNL1     0.0016
     23 C         -7.583162   0.565336   0.107832 C.3        1 UNL1     0.0012
     24 C         -7.270167   -0.389611   -1.054866 C.3        1 UNL1     -0.0339
     25 C         -8.281613   -0.229683   -2.2018 C.3        1 UNL1     -0.0615
     26 C         -5.844343   -0.177801   -1.533345 C.3        1 UNL1     -0.0615
     27 C         -3.040812   4.743017   7.66894 C.ar        1 UNL1     0.1347
     28 C         -1.677063   4.589123   7.843742 C.ar        1 UNL1     0.0342
     29 C         -0.995493   4.088551   6.714116 C.ar        1 UNL1     0.1435
     30 C         -1.648054   3.730979   5.533639 C.ar        1 UNL1     0.0774
     31 O         0.318525   3.778886   6.76382 O.3        1 UNL1     -0.4436
     32 C         0.525043   2.894639   5.651916 C.3        1 UNL1     0.3143
     33 C         -0.599461   3.205013   4.68477 C.2        1 UNL1     0.2504
     34 C         -0.931197   4.744417   9.139762 C.3        1 UNL1     -0.0327
     35 O         1.745381   3.290565   5.01374 O.2        1 UNL1     -0.4528
     36 C         3.202   0.128666   3.500882 C.3        1 UNL1     0.0854
     37 C         2.556351   -0.868391   2.463319 C.3        1 UNL1     0.0236
     38 C         3.425118   -1.122486   1.139527 C.3        1 UNL1     0.1131
     39 C         3.971147   0.109018   0.31036 C.3        1 UNL1     0.0200
     40 C         2.990582   1.423437   0.005019 C.3        1 UNL1     0.0661
     41 C         1.414445   1.363587   -0.619335 C.3        1 UNL1     0.0091
     42 C         -0.026675   2.458429   -0.319507 C.3        1 UNL1     0.0661
     43 C         -5.190474   4.42148   6.426677 C.2        1 UNL1     0.2131
     44 O         -5.917288   4.489112   7.401307 O.2        1 UNL1     -0.2851
     45 O         -3.796736   5.314029   8.690685 O.3        1 UNL1     -0.5056
     46 O         -0.617605   3.069591   3.48178 O.2        1 UNL1     -0.2836
     47 C         0.01852   5.121034   -0.481695 C.3        1 UNL1     -0.0566
     48 O         -0.363347   2.599088   -1.756859 O.3        1 UNL1     -0.3909
     49 C         0.91118   -0.060368   -0.538262 C.3        1 UNL1     -0.0577
     50 O         3.05457   2.353879   1.067049 O.3        1 UNL1     -0.3910
     51 O         4.362669   0.801788   3.068233 O.3        1 UNL1     -0.3753
     52 C         0.998676   -0.738118   2.423009 C.3        1 UNL1     -0.0564
     53 O         2.97708   -2.315563   0.346964 O.3        1 UNL1     -0.4608
     54 C         2.728642   -3.562332   0.858605 C.2        1 UNL1     0.3042
     55 O         3.452797   -4.554815   0.792149 O.2        1 UNL1     -0.2512
     56 C         1.438529   -3.652623   1.622914 C.3        1 UNL1     0.0332
     57 C         5.467863   0.392945   0.7976 C.3        1 UNL1     -0.0567
     58 C         0.33495   1.458746   6.193771 C.3        1 UNL1     0.0210
     59 C         4.413011   2.18723   3.405699 C.3        1 UNL1     0.0372
     60 C         2.278   1.16612   4.034804 C.2        1 UNL1     -0.0208
     61 C         2.458836   2.475363   4.213481 C.2        1 UNL1     0.0882
     62 H         -0.396296   3.908827   1.233764 H        1 UNL1     0.0365
     63 H         -1.965548   4.895005   2.091161 H        1 UNL1     0.0576
     64 H         -4.157092   5.516451   0.015657 H        1 UNL1     0.0615
     65 H         -3.974734   5.934284   3.105968 H        1 UNL1     0.0622
     66 H         3.473661   -0.502962   4.358375 H        1 UNL1     0.0645
     67 H         2.621183   -1.851834   2.960508 H        1 UNL1     0.0362
     68 H         4.314781   -1.588432   1.58999 H        1 UNL1     0.0741
     69 H         4.231343   -0.228758   -0.683931 H        1 UNL1     0.0359
     70 H         3.560715   1.90022   -0.815156 H        1 UNL1     0.0600
     71 H         1.631634   1.455726   -1.7016 H        1 UNL1     0.0348
     72 H         0.859654   3.033368   -0.014253 H        1 UNL1     0.0602
     73 H         1.403251   0.695264   4.409447 H        1 UNL1     0.0628
     74 H         3.298347   3.042619   3.810145 H        1 UNL1     0.1022
     75 H         -7.439631   7.569361   1.597591 H        1 UNL1     0.0279
     76 H         -7.712525   5.916505   1.214324 H        1 UNL1     0.0279
     77 H         -8.144272   6.607623   2.830259 H        1 UNL1     0.0279
     78 H         -7.27738   4.517649   3.892367 H        1 UNL1     0.1553
     79 H         -6.364464   3.434886   2.50657 H        1 UNL1     0.1484
     80 H         -4.273992   0.268847   2.292983 H        1 UNL1     0.0317
     81 H         -4.942576   0.866094   3.805008 H        1 UNL1     0.0317
     82 H         -7.081167   1.520355   2.668314 H        1 UNL1     0.0428
     83 H         -6.699952   -0.175568   2.467758 H        1 UNL1     0.0428
     84 H         -5.774711   2.383643   -0.802946 H        1 UNL1     0.0428
     85 H         -6.518183   3.128301   0.568862 H        1 UNL1     0.0428
     86 H         -4.041882   3.353398   0.363643 H        1 UNL1     0.0317
     87 H         -3.783978   1.670589   0.426806 H        1 UNL1     0.0317
     88 H         -8.179529   0.023972   0.853865 H        1 UNL1     0.0429
     89 H         -8.187526   1.416738   -0.230742 H        1 UNL1     0.0429
     90 H         -7.313969   -1.423456   -0.692294 H        1 UNL1     0.0308
     91 H         -8.452738   0.825067   -2.437001 H        1 UNL1     0.0233
     92 H         -7.9324   -0.74523   -3.099503 H        1 UNL1     0.0233
     93 H         -9.259112   -0.664406   -1.960247 H        1 UNL1     0.0233
     94 H         -5.732731   -0.54133   -2.560586 H        1 UNL1     0.0233
     95 H         -5.601919   0.888558   -1.524904 H        1 UNL1     0.0233
     96 H         -5.127842   -0.707714   -0.899479 H        1 UNL1     0.0233
     97 H         -1.602049   4.798993   9.991941 H        1 UNL1     0.0280
     98 H         -0.263173   3.895838   9.337028 H        1 UNL1     0.0280
     99 H         -0.331773   5.66909   9.112078 H        1 UNL1     0.0280
     100 H         -4.725283   5.314014   8.53764 H        1 UNL1     0.2922
     101 H         0.917706   5.323858   0.099668 H        1 UNL1     0.0236
     102 H         -0.532837   6.031719   -0.713302 H        1 UNL1     0.0236
     103 H         0.390209   4.762101   -1.455968 H        1 UNL1     0.0236
     104 H         -0.554364   1.705734   -2.103849 H        1 UNL1     0.2098
     105 H         0.69889   -0.517204   -1.501613 H        1 UNL1     0.0234
     106 H         1.524516   -0.72625   0.068654 H        1 UNL1     0.0234
     107 H         0.0   0.0   0.0 H        1 UNL1     0.0234
     108 H         2.210303   2.844728   1.073964 H        1 UNL1     0.2098
     109 H         0.507164   -1.396434   3.152905 H        1 UNL1     0.0234
     110 H         0.649014   0.290352   2.563469 H        1 UNL1     0.0234
     111 H         0.593713   -1.025537   1.443549 H        1 UNL1     0.0234
     112 H         1.311588   -4.664085   2.020626 H        1 UNL1     0.0342
     113 H         1.380416   -2.910228   2.417468 H        1 UNL1     0.0342
     114 H         0.612145   -3.458896   0.925257 H        1 UNL1     0.0342
     115 H         5.722883   -0.189007   1.693973 H        1 UNL1     0.0234
     116 H         6.227941   0.182867   0.042486 H        1 UNL1     0.0234
     117 H         5.624275   1.423261   1.160813 H        1 UNL1     0.0234
     118 H         0.872157   0.711112   5.584297 H        1 UNL1     0.0309
     119 H         0.636591   1.351099   7.240493 H        1 UNL1     0.0309
     120 H         -0.707107   1.124671   6.142603 H        1 UNL1     0.0309
     121 H         5.053409   2.681348   2.675566 H        1 UNL1     0.0524
     122 H         3.421089   2.666394   3.355394 H        1 UNL1     0.0524
     123 H         4.816441   2.315976   4.40608 H        1 UNL1     0.0524
@<TRIPOS>BOND
     1     1     2    1
     2     1    42    1
     3     2     3    2
     4     3     4    1
     5     4     5    2
     6     5     7    1
     7     6    75    1
     8     6    76    1
     9     6    77    1
    10     7     9   am
    11     9    10    1
    12    10    11    2
    13    10    43    1
    14    11    14    1
    15    11    15    1
    16    12    13   ar
    17    12    27   ar
    18    12    43    1
    19    13    14    1
    20    13    30   ar
    21    14    17    2
    22    15    16    1
    23    16    17    1
    24    16    18    1
    25    16    22    1
    26    18    19    1
    27    19    20    1
    28    20    21    1
    29    21    22    1
    30    23    24    1
    31    23    88    1
    32    23    89    1
    33    24    25    1
    34    24    26    1
    35    24    90    1
    36    25    91    1
    37    25    92    1
    38    25    93    1
    39    26    94    1
    40    26    95    1
    41    26    96    1
    42    27    28   ar
    43    28    29   ar
    44    29    30   ar
    45    29    31    1
    46    30    33    1
    47    31    32    1
    48    32    33    1
    49    32    35    1
    50    34    97    1
    51    34    98    1
    52    34    99    1
    53    35    61    1
    54    36    37    1
    55    36    60    1
    56    37    38    1
    57    38    39    1
    58    39    40    1
    59    40    41    1
    60    41    42    1
    61    45   100    1
    62    47   101    1
    63    47   102    1
    64    47   103    1
    65    48   104    1
    66    49   105    1
    67    49   106    1
    68    49   107    1
    69    50   108    1
    70    51    59    1
    71    52   109    1
    72    52   110    1
    73    52   111    1
    74    53    54    1
    75    54    55    2
    76    54    56    1
    77    56   112    1
    78    56   113    1
    79    56   114    1
    80    57   115    1
    81    57   116    1
    82    57   117    1
    83    58   118    1
    84    58   119    1
    85    58   120    1
    86    59   121    1
    87    59   122    1
    88    59   123    1
    89    60    61    2
    90     1    47    1
    91     1    62    1
    92     2    63    1
    93     3    64    1
    94     4    65    1
    95     5     6    1
    96     7     8    2
    97     9    78    1
    98    15    79    1
    99    18    80    1
   100    18    81    1
   101    19    82    1
   102    19    83    1
   103    20    23    1
   104    21    84    1
   105    21    85    1
   106    22    86    1
   107    22    87    1
   108    27    45    1
   109    28    34    1
   110    32    58    1
   111    33    46    2
   112    36    51    1
   113    36    66    1
   114    37    52    1
   115    37    67    1
   116    38    53    1
   117    38    68    1
   118    42    48    1
   119    42    72    1
   120    43    44    2
   121    60    73    1
   122    61    74    1
   123    39    69    1
   124    39    57    1
   125    40    70    1
   126    40    50    1
   127    41    71    1
   128    41    49    1
