@<TRIPOS>MOLECULE
*****
 123 128 0 0 0
SMALL
GASTEIGER

@<TRIPOS>ATOM
     1 C         5.171579   1.739463   0.477738 C.3        1 UNL1     0.0009
     2 C         6.607911   2.541835   -0.376771 C.2        1 UNL1     -0.0787
     3 C         7.888094   2.44042   -1.045271 C.2        1 UNL1     -0.0649
     4 C         8.766235   3.672999   -1.804201 C.2        1 UNL1     -0.0542
     5 C         9.784711   3.962621   -2.745425 C.2        1 UNL1     0.0115
     6 C         10.90974   3.334027   -3.612894 C.3        1 UNL1     -0.0348
     7 C         9.881565   5.445018   -3.35379 C.2        1 UNL1     0.2441
     8 O         10.707891   6.265479   -2.978884 O.2        1 UNL1     -0.2702
     9 N         9.129112   5.652149   -4.523005 N.am        1 UNL1     -0.2772
     10 C         7.84786   6.041671   -4.206794 C.2        1 UNL1     0.1049
     11 C         7.000849   5.072228   -3.911879 C.2        1 UNL1     0.0801
     12 C         6.555772   7.652404   -2.794923 C.ar        1 UNL1     0.0753
     13 C         5.795535   6.526463   -2.344475 C.ar        1 UNL1     0.0305
     14 C         5.908475   5.219824   -2.988672 C.2        1 UNL1     0.0924
     15 N         7.120528   3.742839   -4.069767 N.pl3        1 UNL1     -0.3170
     16 C         5.850218   3.146488   -3.752069 C.3        1 UNL1     0.1275
     17 N         5.217884   4.104043   -2.77178 N.2        1 UNL1     -0.2557
     18 C         4.994642   3.205819   -5.013882 C.3        1 UNL1     0.0016
     19 C         5.745649   2.519011   -6.143428 C.3        1 UNL1     0.0026
     20 N         6.013981   1.140815   -5.756647 N.3        1 UNL1     -0.3018
     21 C         6.779815   0.980308   -4.518865 C.3        1 UNL1     0.0026
     22 C         6.004939   1.673582   -3.396887 C.3        1 UNL1     0.0016
     23 C         6.454394   0.319186   -6.866425 C.3        1 UNL1     0.0012
     24 C         5.296258   0.070872   -7.845616 C.3        1 UNL1     -0.0339
     25 C         5.370987   1.015796   -9.056232 C.3        1 UNL1     -0.0615
     26 C         5.27977   -1.386191   -8.273958 C.3        1 UNL1     -0.0615
     27 C         6.354791   8.921091   -2.256258 C.ar        1 UNL1     0.1347
     28 C         5.398424   9.193567   -1.294402 C.ar        1 UNL1     0.0342
     29 C         4.695699   8.060995   -0.831129 C.ar        1 UNL1     0.1435
     30 C         4.911511   6.777984   -1.335636 C.ar        1 UNL1     0.0774
     31 O         3.656857   8.177533   0.024577 O.3        1 UNL1     -0.4436
     32 C         2.932467   6.945963   -0.114584 C.3        1 UNL1     0.3143
     33 C         3.942629   5.950298   -0.647908 C.2        1 UNL1     0.2504
     34 C         4.955236   10.561026   -0.854243 C.3        1 UNL1     -0.0327
     35 O         2.573954   6.511427   1.202952 O.2        1 UNL1     -0.4528
     36 C         -0.673728   4.585114   0.815691 C.3        1 UNL1     0.0854
     37 C         -0.983508   3.324129   -0.07956 C.3        1 UNL1     0.0236
     38 C         -1.584731   2.065134   0.71114 C.3        1 UNL1     0.1131
     39 C         -0.857068   1.534238   2.011496 C.3        1 UNL1     0.0200
     40 C         0.803927   1.385507   2.049076 C.3        1 UNL1     0.0661
     41 C         1.759156   0.613509   0.878962 C.3        1 UNL1     0.0091
     42 C         3.466166   0.972114   0.310697 C.3        1 UNL1     0.0661
     43 C         7.502873   7.441604   -3.917787 C.2        1 UNL1     0.2131
     44 O         7.902875   8.338099   -4.638225 O.2        1 UNL1     -0.2851
     45 O         7.16803   9.954103   -2.717742 O.3        1 UNL1     -0.5056
     46 O         3.956575   4.746881   -0.515818 O.2        1 UNL1     -0.2836
     47 C         5.570357   1.310824   1.915523 C.3        1 UNL1     -0.0566
     48 O         3.912169   -0.439769   0.393053 O.3        1 UNL1     -0.3909
     49 C         0.921716   0.381156   -0.358859 C.3        1 UNL1     -0.0577
     50 O         1.407379   2.602638   2.439155 O.3        1 UNL1     -0.3910
     51 O         -0.795036   4.39724   2.207603 O.3        1 UNL1     -0.3753
     52 C         0.058022   3.160334   -1.234261 C.3        1 UNL1     -0.0564
     53 O         -2.191389   1.026318   -0.186165 O.3        1 UNL1     -0.4608
     54 C         -2.42757   -0.279594   0.155513 C.2        1 UNL1     0.3042
     55 O         -1.860386   -1.280219   -0.281396 O.2        1 UNL1     -0.2512
     56 C         -3.466987   -0.442125   1.227852 C.3        1 UNL1     0.0332
     57 C         -1.573936   2.206049   3.273615 C.3        1 UNL1     -0.0567
     58 C         1.855298   7.19193   -1.19659 C.3        1 UNL1     0.0210
     59 C         -1.104263   5.577683   2.947062 C.3        1 UNL1     0.0372
     60 C         0.655964   5.211349   0.58136 C.2        1 UNL1     -0.0208
     61 C         1.571711   5.645779   1.448206 C.2        1 UNL1     0.0882
     62 H         4.697773   2.724659   0.564973 H        1 UNL1     0.0365
     63 H         6.343954   3.596269   -0.272053 H        1 UNL1     0.0576
     64 H         8.343363   1.472432   -1.266263 H        1 UNL1     0.0615
     65 H         8.281722   4.589732   -1.457314 H        1 UNL1     0.0622
     66 H         -1.417625   5.332743   0.506313 H        1 UNL1     0.0645
     67 H         -1.849837   3.634492   -0.68924 H        1 UNL1     0.0362
     68 H         -2.53015   2.50425   1.064528 H        1 UNL1     0.0741
     69 H         -1.190114   0.524009   2.208791 H        1 UNL1     0.0359
     70 H         0.916416   0.725953   2.930776 H        1 UNL1     0.0600
     71 H         1.80172   -0.407257   1.306958 H        1 UNL1     0.0348
     72 H         3.363458   1.461628   1.290055 H        1 UNL1     0.0602
     73 H         0.77189   5.407199   -0.45568 H        1 UNL1     0.0628
     74 H         1.556183   5.436356   2.518317 H        1 UNL1     0.1022
     75 H         10.933748   2.225458   -3.480488 H        1 UNL1     0.0279
     76 H         10.807306   3.439062   -4.690644 H        1 UNL1     0.0279
     77 H         11.916932   3.614966   -3.271811 H        1 UNL1     0.0279
     78 H         9.064226   4.781731   -5.046684 H        1 UNL1     0.1553
     79 H         7.78356   3.312855   -4.688181 H        1 UNL1     0.1484
     80 H         4.03285   2.71698   -4.817011 H        1 UNL1     0.0317
     81 H         4.769439   4.242706   -5.285546 H        1 UNL1     0.0317
     82 H         6.676779   3.048217   -6.394127 H        1 UNL1     0.0428
     83 H         5.118582   2.574366   -7.033806 H        1 UNL1     0.0428
     84 H         6.898805   -0.062527   -4.208786 H        1 UNL1     0.0428
     85 H         7.810384   1.346213   -4.625437 H        1 UNL1     0.0428
     86 H         6.522935   1.423238   -2.489695 H        1 UNL1     0.0317
     87 H         5.024853   1.197998   -3.269033 H        1 UNL1     0.0317
     88 H         7.250312   0.858833   -7.396134 H        1 UNL1     0.0429
     89 H         6.885943   -0.627031   -6.515407 H        1 UNL1     0.0429
     90 H         4.345073   0.241569   -7.327617 H        1 UNL1     0.0308
     91 H         6.324617   0.913081   -9.582674 H        1 UNL1     0.0233
     92 H         4.553417   0.816388   -9.752956 H        1 UNL1     0.0233
     93 H         5.277947   2.070251   -8.769346 H        1 UNL1     0.0233
     94 H         4.585512   -1.526402   -9.109531 H        1 UNL1     0.0233
     95 H         6.27594   -1.688436   -8.609005 H        1 UNL1     0.0233
     96 H         4.969823   -2.039762   -7.453748 H        1 UNL1     0.0233
     97 H         4.157176   10.513771   -0.119329 H        1 UNL1     0.0280
     98 H         5.767748   11.126546   -0.37962 H        1 UNL1     0.0280
     99 H         4.589494   11.128659   -1.725518 H        1 UNL1     0.0280
     100 H         6.701745   10.705781   -3.03896 H        1 UNL1     0.2922
     101 H         4.704741   0.890867   2.427384 H        1 UNL1     0.0236
     102 H         6.035098   2.112539   2.488456 H        1 UNL1     0.0236
     103 H         6.315845   0.49815   1.913628 H        1 UNL1     0.0236
     104 H         4.328063   -0.567145   1.268141 H        1 UNL1     0.2098
     105 H         0.709357   1.279776   -0.932617 H        1 UNL1     0.0234
     106 H         1.288183   -0.408201   -1.015017 H        1 UNL1     0.0234
     107 H         0.0   -0.0   0.0 H        1 UNL1     0.0234
     108 H         1.223531   3.255783   1.736753 H        1 UNL1     0.2098
     109 H         1.084968   3.057683   -0.856695 H        1 UNL1     0.0234
     110 H         -0.170907   2.325298   -1.90512 H        1 UNL1     0.0234
     111 H         0.070632   4.037142   -1.895317 H        1 UNL1     0.0234
     112 H         -3.591846   -1.502474   1.467466 H        1 UNL1     0.0342
     113 H         -3.22845   0.134631   2.120206 H        1 UNL1     0.0342
     114 H         -4.424138   -0.07018   0.837103 H        1 UNL1     0.0342
     115 H         -2.643951   1.959899   3.314432 H        1 UNL1     0.0234
     116 H         -1.13584   1.926533   4.233819 H        1 UNL1     0.0234
     117 H         -1.610503   3.307922   3.223815 H        1 UNL1     0.0234
     118 H         0.955487   7.67965   -0.782494 H        1 UNL1     0.0309
     119 H         2.223461   7.77953   -2.043575 H        1 UNL1     0.0309
     120 H         1.465055   6.260279   -1.620668 H        1 UNL1     0.0309
     121 H         -0.265133   6.264236   2.838145 H        1 UNL1     0.0524
     122 H         -2.003042   6.088419   2.56316 H        1 UNL1     0.0524
     123 H         -1.256876   5.335549   3.995 H        1 UNL1     0.0524
@<TRIPOS>BOND
     1     1     2    1
     2     1    42    1
     3     2     3    2
     4     3     4    1
     5     4     5    2
     6     5     7    1
     7     6    75    1
     8     6    76    1
     9     6    77    1
    10     7     9   am
    11     9    10    1
    12    10    11    2
    13    10    43    1
    14    11    14    1
    15    11    15    1
    16    12    13   ar
    17    12    27   ar
    18    12    43    1
    19    13    14    1
    20    13    30   ar
    21    14    17    2
    22    15    16    1
    23    16    17    1
    24    16    18    1
    25    16    22    1
    26    18    19    1
    27    19    20    1
    28    20    21    1
    29    21    22    1
    30    23    24    1
    31    23    88    1
    32    23    89    1
    33    24    25    1
    34    24    26    1
    35    24    90    1
    36    25    91    1
    37    25    92    1
    38    25    93    1
    39    26    94    1
    40    26    95    1
    41    26    96    1
    42    27    28   ar
    43    28    29   ar
    44    29    30   ar
    45    29    31    1
    46    30    33    1
    47    31    32    1
    48    32    33    1
    49    32    35    1
    50    34    97    1
    51    34    98    1
    52    34    99    1
    53    35    61    1
    54    36    37    1
    55    36    60    1
    56    37    38    1
    57    38    39    1
    58    39    40    1
    59    40    41    1
    60    41    42    1
    61    45   100    1
    62    47   101    1
    63    47   102    1
    64    47   103    1
    65    48   104    1
    66    49   105    1
    67    49   106    1
    68    49   107    1
    69    50   108    1
    70    51    59    1
    71    52   109    1
    72    52   110    1
    73    52   111    1
    74    53    54    1
    75    54    55    2
    76    54    56    1
    77    56   112    1
    78    56   113    1
    79    56   114    1
    80    57   115    1
    81    57   116    1
    82    57   117    1
    83    58   118    1
    84    58   119    1
    85    58   120    1
    86    59   121    1
    87    59   122    1
    88    59   123    1
    89    60    61    2
    90     1    47    1
    91     1    62    1
    92     2    63    1
    93     3    64    1
    94     4    65    1
    95     5     6    1
    96     7     8    2
    97     9    78    1
    98    15    79    1
    99    18    80    1
   100    18    81    1
   101    19    82    1
   102    19    83    1
   103    20    23    1
   104    21    84    1
   105    21    85    1
   106    22    86    1
   107    22    87    1
   108    27    45    1
   109    28    34    1
   110    32    58    1
   111    33    46    2
   112    36    51    1
   113    36    66    1
   114    37    52    1
   115    37    67    1
   116    38    53    1
   117    38    68    1
   118    42    48    1
   119    42    72    1
   120    43    44    2
   121    60    73    1
   122    61    74    1
   123    39    69    1
   124    39    57    1
   125    40    70    1
   126    40    50    1
   127    41    71    1
   128    41    49    1
