@<TRIPOS>MOLECULE
*****
 123 128 0 0 0
SMALL
GASTEIGER

@<TRIPOS>ATOM
     1 C         3.204456   3.541725   0.631643 C.3        1 UNL1     0.0009
     2 C         4.282437   4.510388   -0.524509 C.2        1 UNL1     -0.0787
     3 C         5.598379   4.884969   -0.997831 C.2        1 UNL1     -0.0649
     4 C         5.988231   5.849427   -2.333567 C.2        1 UNL1     -0.0542
     5 C         7.0035   6.195237   -3.259159 C.2        1 UNL1     0.0115
     6 C         8.514952   6.039801   -3.582696 C.3        1 UNL1     -0.0348
     7 C         6.59168   6.931836   -4.624742 C.2        1 UNL1     0.2441
     8 O         6.735945   8.133587   -4.802251 O.2        1 UNL1     -0.2702
     9 N         6.298693   6.068252   -5.69457 N.am        1 UNL1     -0.2772
     10 C         4.969167   5.714237   -5.675679 C.2        1 UNL1     0.1049
     11 C         4.642932   4.720195   -4.869656 C.2        1 UNL1     0.0801
     12 C         2.66451   6.669543   -5.493256 C.ar        1 UNL1     0.0753
     13 C         2.427775   5.698352   -4.468877 C.ar        1 UNL1     0.0305
     14 C         3.366699   4.607455   -4.21705 C.2        1 UNL1     0.0924
     15 N         5.426699   3.848709   -4.211819 N.pl3        1 UNL1     -0.3170
     16 C         4.573885   2.858518   -3.609753 C.3        1 UNL1     0.1275
     17 N         3.263606   3.573503   -3.386845 N.2        1 UNL1     -0.2557
     18 C         4.300615   1.793635   -4.667604 C.3        1 UNL1     0.0016
     19 C         5.63054   1.254859   -5.170206 C.3        1 UNL1     0.0026
     20 N         6.36538   0.697365   -4.043157 N.3        1 UNL1     -0.3018
     21 C         6.622836   1.631757   -2.945434 C.3        1 UNL1     0.0026
     22 C         5.273262   2.157049   -2.452877 C.3        1 UNL1     0.0016
     23 C         7.50198   -0.103765   -4.451784 C.3        1 UNL1     0.0012
     24 C         7.031332   -1.414568   -5.101432 C.3        1 UNL1     -0.0339
     25 C         7.995332   -2.572301   -4.794164 C.3        1 UNL1     -0.0615
     26 C         5.613968   -1.735136   -4.659736 C.3        1 UNL1     -0.0615
     27 C         1.709831   7.633622   -5.808308 C.ar        1 UNL1     0.1347
     28 C         0.470296   7.701133   -5.197534 C.ar        1 UNL1     0.0342
     29 C         0.278561   6.765709   -4.1586 C.ar        1 UNL1     0.1435
     30 C         1.239965   5.817229   -3.807446 C.ar        1 UNL1     0.0774
     31 O         -0.915966   6.632406   -3.54188 O.3        1 UNL1     -0.4436
     32 C         -0.865804   5.334306   -2.930903 C.3        1 UNL1     0.3143
     33 C         0.609674   5.0296   -2.76863 C.2        1 UNL1     0.2504
     34 C         -0.691874   8.539745   -5.651618 C.3        1 UNL1     -0.0327
     35 O         -1.412759   5.462522   -1.612703 O.2        1 UNL1     -0.4528
     36 C         -2.97946   2.100903   -0.804588 C.3        1 UNL1     0.0854
     37 C         -2.314561   0.670858   -0.784482 C.3        1 UNL1     0.0236
     38 C         -2.479795   -0.131983   0.593882 C.3        1 UNL1     0.1131
     39 C         -2.099185   0.567754   1.960548 C.3        1 UNL1     0.0200
     40 C         -0.702592   1.471065   2.087014 C.3        1 UNL1     0.0661
     41 C         0.846761   0.978297   1.602975 C.3        1 UNL1     0.0091
     42 C         2.252934   1.953029   0.941176 C.3        1 UNL1     0.0661
     43 C         3.924016   6.560561   -6.270447 C.2        1 UNL1     0.2131
     44 O         4.074486   7.04108   -7.379139 O.2        1 UNL1     -0.2851
     45 O         2.037339   8.570299   -6.786477 O.3        1 UNL1     -0.5056
     46 O         1.146137   4.31508   -1.95161 O.2        1 UNL1     -0.2836
     47 C         3.222882   4.17871   2.047232 C.3        1 UNL1     -0.0566
     48 O         3.25432   1.334507   1.84327 O.3        1 UNL1     -0.3909
     49 C         0.718244   -0.254842   0.73675 C.3        1 UNL1     -0.0577
     50 O         -0.931835   2.807012   1.686495 O.3        1 UNL1     -0.3910
     51 O         -3.478579   2.565621   0.429247 O.3        1 UNL1     -0.3753
     52 C         -0.990033   0.633335   -1.614644 C.3        1 UNL1     -0.0564
     53 O         -2.159087   -1.593638   0.479702 O.3        1 UNL1     -0.4608
     54 C         -1.526676   -2.345882   1.434749 C.2        1 UNL1     0.3042
     55 O         -0.35228   -2.712772   1.439772 O.2        1 UNL1     -0.2512
     56 C         -2.399766   -2.68394   2.609545 C.3        1 UNL1     0.0332
     57 C         -3.441186   1.179712   2.579187 C.3        1 UNL1     -0.0567
     58 C         -1.469781   4.345272   -3.954892 C.3        1 UNL1     0.0210
     59 C         -4.90168   2.588077   0.529962 C.3        1 UNL1     0.0372
     60 C         -2.122351   3.185197   -1.356702 C.2        1 UNL1     -0.0208
     61 C         -1.895961   4.42087   -0.908812 C.2        1 UNL1     0.0882
     62 H         2.323614   3.945659   0.118159 H        1 UNL1     0.0365
     63 H         3.531726   5.09192   -1.063695 H        1 UNL1     0.0576
     64 H         6.503244   4.417964   -0.602566 H        1 UNL1     0.0615
     65 H         5.039769   6.325298   -2.597104 H        1 UNL1     0.0622
     66 H         -3.825403   2.002232   -1.499348 H        1 UNL1     0.0645
     67 H         -2.945616   0.072221   -1.464161 H        1 UNL1     0.0362
     68 H         -3.575223   -0.237365   0.615196 H        1 UNL1     0.0741
     69 H         -1.957252   -0.195089   2.714428 H        1 UNL1     0.0359
     70 H         -0.609281   1.524694   3.188594 H        1 UNL1     0.0600
     71 H         1.215224   0.540011   2.551183 H        1 UNL1     0.0348
     72 H         1.592371   2.675448   1.442257 H        1 UNL1     0.0602
     73 H         -1.756435   2.890535   -2.30882 H        1 UNL1     0.0628
     74 H         -2.186138   4.781727   0.078516 H        1 UNL1     0.1022
     75 H         9.133062   6.243418   -2.67522 H        1 UNL1     0.0279
     76 H         8.848779   5.046897   -3.875561 H        1 UNL1     0.0279
     77 H         8.883523   6.811977   -4.273782 H        1 UNL1     0.0279
     78 H         6.844508   5.213893   -5.603838 H        1 UNL1     0.1553
     79 H         6.383523   3.667512   -4.45387 H        1 UNL1     0.1484
     80 H         3.688046   0.998897   -4.224979 H        1 UNL1     0.0317
     81 H         3.722141   2.208422   -5.500052 H        1 UNL1     0.0317
     82 H         6.218181   2.032313   -5.680262 H        1 UNL1     0.0428
     83 H         5.412482   0.498434   -5.924741 H        1 UNL1     0.0428
     84 H         7.104964   1.168447   -2.079 H        1 UNL1     0.0428
     85 H         7.317439   2.429715   -3.242262 H        1 UNL1     0.0428
     86 H         5.4901   2.729669   -1.570224 H        1 UNL1     0.0317
     87 H         4.663971   1.327458   -2.073879 H        1 UNL1     0.0317
     88 H         8.073981   0.468402   -5.193898 H        1 UNL1     0.0429
     89 H         8.175771   -0.299744   -3.607763 H        1 UNL1     0.0429
     90 H         6.983002   -1.279579   -6.188472 H        1 UNL1     0.0308
     91 H         8.265699   -2.594066   -3.734197 H        1 UNL1     0.0233
     92 H         7.548733   -3.530429   -5.070116 H        1 UNL1     0.0233
     93 H         8.9319   -2.497237   -5.359886 H        1 UNL1     0.0233
     94 H         5.413007   -2.80492   -4.782263 H        1 UNL1     0.0233
     95 H         5.487093   -1.487251   -3.602183 H        1 UNL1     0.0233
     96 H         4.877809   -1.176083   -5.244114 H        1 UNL1     0.0233
     97 H         -1.618659   8.248604   -5.166297 H        1 UNL1     0.0280
     98 H         -0.551284   9.603117   -5.417676 H        1 UNL1     0.0280
     99 H         -0.822829   8.430175   -6.740627 H        1 UNL1     0.0280
     100 H         2.875494   8.981899   -6.669411 H        1 UNL1     0.2922
     101 H         2.291363   4.717223   2.220238 H        1 UNL1     0.0236
     102 H         4.096435   4.805329   2.223974 H        1 UNL1     0.0236
     103 H         3.257773   3.416809   2.843777 H        1 UNL1     0.0236
     104 H         2.808871   0.611603   2.32696 H        1 UNL1     0.2098
     105 H         1.633295   -0.541108   0.22436 H        1 UNL1     0.0234
     106 H         0.278909   -1.118317   1.236074 H        1 UNL1     0.0234
     107 H         0.0   0.0   0.0 H        1 UNL1     0.0234
     108 H         -1.24078   2.783256   0.760344 H        1 UNL1     0.2098
     109 H         -1.155273   0.879292   -2.672903 H        1 UNL1     0.0234
     110 H         -0.207308   1.281326   -1.205751 H        1 UNL1     0.0234
     111 H         -0.537179   -0.367084   -1.609202 H        1 UNL1     0.0234
     112 H         -1.830429   -3.265049   3.341333 H        1 UNL1     0.0342
     113 H         -2.832401   -1.795624   3.067326 H        1 UNL1     0.0342
     114 H         -3.228011   -3.311232   2.252221 H        1 UNL1     0.0342
     115 H         -4.033428   1.712971   1.822832 H        1 UNL1     0.0234
     116 H         -4.093818   0.438382   3.044536 H        1 UNL1     0.0234
     117 H         -3.260443   1.983264   3.313747 H        1 UNL1     0.0234
     118 H         -2.448799   3.954674   -3.626313 H        1 UNL1     0.0309
     119 H         -1.573153   4.773925   -4.956777 H        1 UNL1     0.0309
     120 H         -0.863681   3.440431   -4.073262 H        1 UNL1     0.0309
     121 H         -5.168306   3.348127   1.26385 H        1 UNL1     0.0524
     122 H         -5.384237   2.862804   -0.422771 H        1 UNL1     0.0524
     123 H         -5.271533   1.616529   0.845234 H        1 UNL1     0.0524
@<TRIPOS>BOND
     1     1     2    1
     2     1    42    1
     3     2     3    2
     4     3     4    1
     5     4     5    2
     6     5     7    1
     7     6    75    1
     8     6    76    1
     9     6    77    1
    10     7     9   am
    11     9    10    1
    12    10    11    2
    13    10    43    1
    14    11    14    1
    15    11    15    1
    16    12    13   ar
    17    12    27   ar
    18    12    43    1
    19    13    14    1
    20    13    30   ar
    21    14    17    2
    22    15    16    1
    23    16    17    1
    24    16    18    1
    25    16    22    1
    26    18    19    1
    27    19    20    1
    28    20    21    1
    29    21    22    1
    30    23    24    1
    31    23    88    1
    32    23    89    1
    33    24    25    1
    34    24    26    1
    35    24    90    1
    36    25    91    1
    37    25    92    1
    38    25    93    1
    39    26    94    1
    40    26    95    1
    41    26    96    1
    42    27    28   ar
    43    28    29   ar
    44    29    30   ar
    45    29    31    1
    46    30    33    1
    47    31    32    1
    48    32    33    1
    49    32    35    1
    50    34    97    1
    51    34    98    1
    52    34    99    1
    53    35    61    1
    54    36    37    1
    55    36    60    1
    56    37    38    1
    57    38    39    1
    58    39    40    1
    59    40    41    1
    60    41    42    1
    61    45   100    1
    62    47   101    1
    63    47   102    1
    64    47   103    1
    65    48   104    1
    66    49   105    1
    67    49   106    1
    68    49   107    1
    69    50   108    1
    70    51    59    1
    71    52   109    1
    72    52   110    1
    73    52   111    1
    74    53    54    1
    75    54    55    2
    76    54    56    1
    77    56   112    1
    78    56   113    1
    79    56   114    1
    80    57   115    1
    81    57   116    1
    82    57   117    1
    83    58   118    1
    84    58   119    1
    85    58   120    1
    86    59   121    1
    87    59   122    1
    88    59   123    1
    89    60    61    2
    90     1    47    1
    91     1    62    1
    92     2    63    1
    93     3    64    1
    94     4    65    1
    95     5     6    1
    96     7     8    2
    97     9    78    1
    98    15    79    1
    99    18    80    1
   100    18    81    1
   101    19    82    1
   102    19    83    1
   103    20    23    1
   104    21    84    1
   105    21    85    1
   106    22    86    1
   107    22    87    1
   108    27    45    1
   109    28    34    1
   110    32    58    1
   111    33    46    2
   112    36    51    1
   113    36    66    1
   114    37    52    1
   115    37    67    1
   116    38    53    1
   117    38    68    1
   118    42    48    1
   119    42    72    1
   120    43    44    2
   121    60    73    1
   122    61    74    1
   123    39    69    1
   124    39    57    1
   125    40    70    1
   126    40    50    1
   127    41    71    1
   128    41    49    1
