@<TRIPOS>MOLECULE
*****
 123 128 0 0 0
SMALL
GASTEIGER

@<TRIPOS>ATOM
     1 C         5.171767   1.738885   0.477719 C.3        1 UNL1     0.0009
     2 C         6.60825   2.540941   -0.376832 C.2        1 UNL1     -0.0787
     3 C         7.888437   2.439254   -1.045285 C.2        1 UNL1     -0.0649
     4 C         8.766794   3.671614   -1.804319 C.2        1 UNL1     -0.0542
     5 C         9.785343   3.960977   -2.745544 C.2        1 UNL1     0.0115
     6 C         10.910299   3.332114   -3.612913 C.3        1 UNL1     -0.0348
     7 C         9.882447   5.443294   -3.354064 C.2        1 UNL1     0.2441
     8 O         10.708892   6.263665   -2.97922 O.2        1 UNL1     -0.2702
     9 N         9.130061   5.650419   -4.523323 N.am        1 UNL1     -0.2772
     10 C         7.848862   6.040175   -4.207191 C.2        1 UNL1     0.1049
     11 C         7.001689   5.070897   -3.912198 C.2        1 UNL1     0.0801
     12 C         6.556985   7.651261   -2.795529 C.ar        1 UNL1     0.0753
     13 C         5.796557   6.525488   -2.344983 C.ar        1 UNL1     0.0305
     14 C         5.909312   5.218762   -2.989038 C.2        1 UNL1     0.0924
     15 N         7.121165   3.741472   -4.069942 N.pl3        1 UNL1     -0.3170
     16 C         5.850752   3.145355   -3.752218 C.3        1 UNL1     0.1275
     17 N         5.218539   4.103112   -2.772049 N.2        1 UNL1     -0.2557
     18 C         4.995222   3.204686   -5.014062 C.3        1 UNL1     0.0016
     19 C         5.746155   2.51764   -6.143513 C.3        1 UNL1     0.0026
     20 N         6.01426   1.139443   -5.756578 N.3        1 UNL1     -0.3018
     21 C         6.780031   0.978947   -4.518756 C.3        1 UNL1     0.0026
     22 C         6.005232   1.672461   -3.396874 C.3        1 UNL1     0.0016
     23 C         6.454576   0.317627   -6.866255 C.3        1 UNL1     0.0012
     24 C         5.296429   0.06939   -7.845454 C.3        1 UNL1     -0.0339
     25 C         5.371343   1.014174   -9.056168 C.3        1 UNL1     -0.0615
     26 C         5.279726   -1.387715   -8.273642 C.3        1 UNL1     -0.0615
     27 C         6.356187   8.920037   -2.257005 C.ar        1 UNL1     0.1347
     28 C         5.399834   9.192765   -1.295205 C.ar        1 UNL1     0.0342
     29 C         4.696918   8.060353   -0.831833 C.ar        1 UNL1     0.1435
     30 C         4.912544   6.777254   -1.336198 C.ar        1 UNL1     0.0774
     31 O         3.658069   8.177144   0.02383 O.3        1 UNL1     -0.4436
     32 C         2.933489   6.945673   -0.115221 C.3        1 UNL1     0.3143
     33 C         3.943512   5.949793   -0.648411 C.2        1 UNL1     0.2504
     34 C         4.956848   10.560341   -0.855205 C.3        1 UNL1     -0.0327
     35 O         2.57487   6.511334   1.20235 O.2        1 UNL1     -0.4528
     36 C         -0.673103   4.585489   0.815198 C.3        1 UNL1     0.0854
     37 C         -0.983055   3.324457   -0.079928 C.3        1 UNL1     0.0236
     38 C         -1.584499   2.06564   0.710887 C.3        1 UNL1     0.1131
     39 C         -0.856957   1.534769   2.011321 C.3        1 UNL1     0.0200
     40 C         0.804014   1.385781   2.048966 C.3        1 UNL1     0.0661
     41 C         1.759156   0.613509   0.878962 C.3        1 UNL1     0.0091
     42 C         3.466239   0.971786   0.310709 C.3        1 UNL1     0.0661
     43 C         7.504085   7.440193   -3.918343 C.2        1 UNL1     0.2131
     44 O         7.904249   8.33655   -4.638864 O.2        1 UNL1     -0.2851
     45 O         7.169601   9.952872   -2.718574 O.3        1 UNL1     -0.5056
     46 O         3.957265   4.746388   -0.516192 O.2        1 UNL1     -0.2836
     47 C         5.570436   1.310336   1.915562 C.3        1 UNL1     -0.0566
     48 O         3.912018   -0.440159   0.393228 O.3        1 UNL1     -0.3909
     49 C         0.921716   0.381156   -0.358859 C.3        1 UNL1     -0.0577
     50 O         1.407646   2.602858   2.438933 O.3        1 UNL1     -0.3910
     51 O         -0.794481   4.397782   2.207126 O.3        1 UNL1     -0.3753
     52 C         0.058484   3.160376   -1.234582 C.3        1 UNL1     -0.0564
     53 O         -2.191292   1.026824   -0.186325 O.3        1 UNL1     -0.4608
     54 C         -2.427689   -0.279014   0.155485 C.2        1 UNL1     0.3042
     55 O         -1.860649   -1.279775   -0.281301 O.2        1 UNL1     -0.2512
     56 C         -3.467163   -0.441267   1.22781 C.3        1 UNL1     0.0332
     57 C         -1.573757   2.206826   3.273347 C.3        1 UNL1     -0.0567
     58 C         1.856391   7.191695   -1.197285 C.3        1 UNL1     0.0210
     59 C         -1.103545   5.578352   2.94645 C.3        1 UNL1     0.0372
     60 C         0.656694   5.21149   0.580839 C.2        1 UNL1     -0.0208
     61 C         1.572484   5.645869   1.447666 C.2        1 UNL1     0.0882
     62 H         4.698114   2.724164   0.564835 H        1 UNL1     0.0365
     63 H         6.344456   3.595428   -0.272235 H        1 UNL1     0.0576
     64 H         8.343561   1.471171   -1.26616 H        1 UNL1     0.0615
     65 H         8.282415   4.58846   -1.457544 H        1 UNL1     0.0622
     66 H         -1.416874   5.333201   0.505718 H        1 UNL1     0.0645
     67 H         -1.849316   3.634892   -0.689667 H        1 UNL1     0.0362
     68 H         -2.529858   2.504943   1.064201 H        1 UNL1     0.0741
     69 H         -1.190167   0.524613   2.208713 H        1 UNL1     0.0359
     70 H         0.916373   0.726303   2.930739 H        1 UNL1     0.0600
     71 H         1.801547   -0.407218   1.307068 H        1 UNL1     0.0348
     72 H         3.363579   1.46142   1.290012 H        1 UNL1     0.0602
     73 H         0.772682   5.407213   -0.456218 H        1 UNL1     0.0628
     74 H         1.556892   5.436562   2.517799 H        1 UNL1     0.1022
     75 H         10.93413   2.223555   -3.480389 H        1 UNL1     0.0279
     76 H         10.807914   3.437051   -4.690677 H        1 UNL1     0.0279
     77 H         11.917525   3.612932   -3.27183 H        1 UNL1     0.0279
     78 H         9.065054   4.779955   -5.046911 H        1 UNL1     0.1553
     79 H         7.784148   3.311319   -4.68829 H        1 UNL1     0.1484
     80 H         4.033348   2.716019   -4.817167 H        1 UNL1     0.0317
     81 H         4.77019   4.241579   -5.285842 H        1 UNL1     0.0317
     82 H         6.677375   3.046673   -6.394241 H        1 UNL1     0.0428
     83 H         5.119122   2.572999   -7.033915 H        1 UNL1     0.0428
     84 H         6.898849   -0.063873   -4.208563 H        1 UNL1     0.0428
     85 H         7.810661   1.344679   -4.625337 H        1 UNL1     0.0428
     86 H         6.523161   1.422133   -2.489641 H        1 UNL1     0.0317
     87 H         5.025067   1.197045   -3.268999 H        1 UNL1     0.0317
     88 H         7.250594   0.857092   -7.395998 H        1 UNL1     0.0429
     89 H         6.885966   -0.62862   -6.515124 H        1 UNL1     0.0429
     90 H         4.345256   0.240291   -7.327501 H        1 UNL1     0.0308
     91 H         6.324972   0.911254   -9.582571 H        1 UNL1     0.0233
     92 H         4.553762   0.814821   -9.752895 H        1 UNL1     0.0233
     93 H         5.278459   2.068674   -8.769396 H        1 UNL1     0.0233
     94 H         4.58547   -1.527905   -9.109221 H        1 UNL1     0.0233
     95 H         6.275858   -1.690152   -8.608627 H        1 UNL1     0.0233
     96 H         4.969652   -2.041151   -7.453371 H        1 UNL1     0.0233
     97 H         4.158759   10.513289   -0.12031 H        1 UNL1     0.0280
     98 H         5.769435   11.125784   -0.380618 H        1 UNL1     0.0280
     99 H         4.59122   11.127938   -1.726551 H        1 UNL1     0.0280
     100 H         6.703445   10.70459   -3.039886 H        1 UNL1     0.2922
     101 H         4.704739   0.890569   2.427441 H        1 UNL1     0.0236
     102 H         6.035286   2.112039   2.488423 H        1 UNL1     0.0236
     103 H         6.315796   0.497545   1.913775 H        1 UNL1     0.0236
     104 H         4.327866   -0.567507   1.268342 H        1 UNL1     0.2098
     105 H         0.709357   1.279776   -0.932617 H        1 UNL1     0.0234
     106 H         1.288183   -0.408201   -1.015017 H        1 UNL1     0.0234
     107 H         0.0   -0.0   0.0 H        1 UNL1     0.0234
     108 H         1.223921   3.255958   1.736456 H        1 UNL1     0.2098
     109 H         1.085402   3.057604   -0.856974 H        1 UNL1     0.0234
     110 H         -0.170556   2.325306   -1.905358 H        1 UNL1     0.0234
     111 H         0.071251   4.037112   -1.895731 H        1 UNL1     0.0234
     112 H         -3.592196   -1.501572   1.467533 H        1 UNL1     0.0342
     113 H         -3.228562   0.135545   2.12011 H        1 UNL1     0.0342
     114 H         -4.424244   -0.069214   0.836993 H        1 UNL1     0.0342
     115 H         -2.643812   1.960849   3.314159 H        1 UNL1     0.0234
     116 H         -1.135732   1.927344   4.233594 H        1 UNL1     0.0234
     117 H         -1.610149   3.3087   3.22343 H        1 UNL1     0.0234
     118 H         0.956645   7.6796   -0.783268 H        1 UNL1     0.0309
     119 H         2.224672   7.779147   -2.044322 H        1 UNL1     0.0309
     120 H         1.466014   6.26006   -1.621276 H        1 UNL1     0.0309
     121 H         -0.264304   6.264762   2.837485 H        1 UNL1     0.0524
     122 H         -2.002233   6.089188   2.562468 H        1 UNL1     0.0524
     123 H         -1.256227   5.336353   3.99441 H        1 UNL1     0.0524
@<TRIPOS>BOND
     1     1     2    1
     2     1    42    1
     3     2     3    2
     4     3     4    1
     5     4     5    2
     6     5     7    1
     7     6    75    1
     8     6    76    1
     9     6    77    1
    10     7     9   am
    11     9    10    1
    12    10    11    2
    13    10    43    1
    14    11    14    1
    15    11    15    1
    16    12    13   ar
    17    12    27   ar
    18    12    43    1
    19    13    14    1
    20    13    30   ar
    21    14    17    2
    22    15    16    1
    23    16    17    1
    24    16    18    1
    25    16    22    1
    26    18    19    1
    27    19    20    1
    28    20    21    1
    29    21    22    1
    30    23    24    1
    31    23    88    1
    32    23    89    1
    33    24    25    1
    34    24    26    1
    35    24    90    1
    36    25    91    1
    37    25    92    1
    38    25    93    1
    39    26    94    1
    40    26    95    1
    41    26    96    1
    42    27    28   ar
    43    28    29   ar
    44    29    30   ar
    45    29    31    1
    46    30    33    1
    47    31    32    1
    48    32    33    1
    49    32    35    1
    50    34    97    1
    51    34    98    1
    52    34    99    1
    53    35    61    1
    54    36    37    1
    55    36    60    1
    56    37    38    1
    57    38    39    1
    58    39    40    1
    59    40    41    1
    60    41    42    1
    61    45   100    1
    62    47   101    1
    63    47   102    1
    64    47   103    1
    65    48   104    1
    66    49   105    1
    67    49   106    1
    68    49   107    1
    69    50   108    1
    70    51    59    1
    71    52   109    1
    72    52   110    1
    73    52   111    1
    74    53    54    1
    75    54    55    2
    76    54    56    1
    77    56   112    1
    78    56   113    1
    79    56   114    1
    80    57   115    1
    81    57   116    1
    82    57   117    1
    83    58   118    1
    84    58   119    1
    85    58   120    1
    86    59   121    1
    87    59   122    1
    88    59   123    1
    89    60    61    2
    90     1    47    1
    91     1    62    1
    92     2    63    1
    93     3    64    1
    94     4    65    1
    95     5     6    1
    96     7     8    2
    97     9    78    1
    98    15    79    1
    99    18    80    1
   100    18    81    1
   101    19    82    1
   102    19    83    1
   103    20    23    1
   104    21    84    1
   105    21    85    1
   106    22    86    1
   107    22    87    1
   108    27    45    1
   109    28    34    1
   110    32    58    1
   111    33    46    2
   112    36    51    1
   113    36    66    1
   114    37    52    1
   115    37    67    1
   116    38    53    1
   117    38    68    1
   118    42    48    1
   119    42    72    1
   120    43    44    2
   121    60    73    1
   122    61    74    1
   123    39    69    1
   124    39    57    1
   125    40    70    1
   126    40    50    1
   127    41    71    1
   128    41    49    1
