@<TRIPOS>MOLECULE
*****
 123 128 0 0 0
SMALL
GASTEIGER

@<TRIPOS>ATOM
     1 C         3.092286   -0.370934   2.709019 C.3        1 UNL1     0.0009
     2 C         3.568337   -1.865023   3.698014 C.2        1 UNL1     -0.0787
     3 C         3.495377   -2.637933   4.920034 C.2        1 UNL1     -0.0649
     4 C         4.139765   -4.174657   5.219366 C.2        1 UNL1     -0.0542
     5 C         4.069051   -5.3222   6.047147 C.2        1 UNL1     0.0115
     6 C         3.454883   -5.892025   7.35536 C.3        1 UNL1     -0.0348
     7 C         4.719322   -6.695299   5.52875 C.2        1 UNL1     0.2441
     8 O         5.800367   -7.110252   5.923317 O.2        1 UNL1     -0.2702
     9 N         3.849608   -7.517263   4.791102 N.am        1 UNL1     -0.2772
     10 C         3.890441   -7.184178   3.456669 C.2        1 UNL1     0.1049
     11 C         3.135211   -6.165507   3.087669 C.2        1 UNL1     0.0801
     12 C         5.472391   -6.744757   1.569428 C.ar        1 UNL1     0.0753
     13 C         4.740319   -5.536312   1.340648 C.ar        1 UNL1     0.0305
     14 C         3.468012   -5.274162   2.009651 C.2        1 UNL1     0.0924
     15 N         2.165095   -5.521606   3.759081 N.pl3        1 UNL1     -0.3170
     16 C         1.537278   -4.601061   2.848753 C.3        1 UNL1     0.1275
     17 N         2.614763   -4.267108   1.846144 N.2        1 UNL1     -0.2557
     18 C         0.471924   -5.378948   2.082193 C.3        1 UNL1     0.0016
     19 C         -0.477623   -6.018338   3.082757 C.3        1 UNL1     0.0026
     20 N         -1.077824   -4.968763   3.894657 N.3        1 UNL1     -0.3018
     21 C         -0.127295   -4.125908   4.622982 C.3        1 UNL1     0.0026
     22 C         0.813742   -3.490076   3.598257 C.3        1 UNL1     0.0016
     23 C         -2.210934   -5.433689   4.669607 C.3        1 UNL1     0.0012
     24 C         -2.329593   -4.639499   5.979927 C.3        1 UNL1     -0.0339
     25 C         -2.861198   -5.518387   7.124047 C.3        1 UNL1     -0.0615
     26 C         -0.991728   -4.012597   6.331906 C.3        1 UNL1     -0.0615
     27 C         6.620752   -7.042137   0.839394 C.ar        1 UNL1     0.1347
     28 C         7.109587   -6.230554   -0.168785 C.ar        1 UNL1     0.0342
     29 C         6.400621   -5.022998   -0.342962 C.ar        1 UNL1     0.1435
     30 C         5.269616   -4.694846   0.405612 C.ar        1 UNL1     0.0774
     31 O         6.686402   -4.178026   -1.357535 O.3        1 UNL1     -0.4436
     32 C         5.511757   -3.364   -1.49334 C.3        1 UNL1     0.3143
     33 C         4.825082   -3.431176   -0.144201 C.2        1 UNL1     0.2504
     34 C         8.180158   -6.600372   -1.157325 C.3        1 UNL1     -0.0327
     35 O         5.949264   -2.011239   -1.671884 O.2        1 UNL1     -0.4528
     36 C         3.291763   -0.330032   -3.797754 C.3        1 UNL1     0.0854
     37 C         1.745807   -0.178764   -3.524512 C.3        1 UNL1     0.0236
     38 C         1.19699   1.327591   -3.562435 C.3        1 UNL1     0.1131
     39 C         1.922338   2.449056   -2.714816 C.3        1 UNL1     0.0200
     40 C         2.402989   2.144739   -1.146758 C.3        1 UNL1     0.0661
     41 C         1.437535   1.473542   0.075944 C.3        1 UNL1     0.0091
     42 C         1.887112   0.3936   1.4891 C.3        1 UNL1     0.0661
     43 C         4.918119   -7.713297   2.547679 C.2        1 UNL1     0.2131
     44 O         5.197369   -8.898507   2.553476 O.2        1 UNL1     -0.2851
     45 O         7.300001   -8.216903   1.155593 O.3        1 UNL1     -0.5056
     46 O         4.093593   -2.615153   0.370469 O.2        1 UNL1     -0.2836
     47 C         3.866161   0.877464   3.211614 C.3        1 UNL1     -0.0566
     48 O         1.126098   1.186654   2.48461 O.3        1 UNL1     -0.3909
     49 C         0.194633   0.883593   -0.552268 C.3        1 UNL1     -0.0577
     50 O         3.689924   1.560891   -1.121425 O.3        1 UNL1     -0.3910
     51 O         4.025636   0.871672   -3.866807 O.3        1 UNL1     -0.3753
     52 C         1.234699   -1.223585   -2.479491 C.3        1 UNL1     -0.0564
     53 O         -0.298276   1.419925   -3.651762 O.3        1 UNL1     -0.4608
     54 C         -1.133925   1.796547   -2.633049 C.2        1 UNL1     0.3042
     55 O         -1.831171   1.065986   -1.930221 O.2        1 UNL1     -0.2512
     56 C         -1.113051   3.272203   -2.352485 C.3        1 UNL1     0.0332
     57 C         2.959108   3.189569   -3.68173 C.3        1 UNL1     -0.0567
     58 C         4.616081   -4.060388   -2.544215 C.3        1 UNL1     0.0210
     59 C         5.429833   0.706289   -4.058498 C.3        1 UNL1     0.0372
     60 C         4.014011   -1.220107   -2.848394 C.2        1 UNL1     -0.0208
     61 C         5.18057   -1.052943   -2.223941 C.2        1 UNL1     0.0882
     62 H         3.662573   -0.772978   1.862943 H        1 UNL1     0.0365
     63 H         4.267729   -2.348429   3.012711 H        1 UNL1     0.0576
     64 H         2.843849   -2.343196   5.745716 H        1 UNL1     0.0615
     65 H         4.828135   -4.33559   4.385261 H        1 UNL1     0.0622
     66 H         3.351816   -0.823183   -4.778183 H        1 UNL1     0.0645
     67 H         1.271314   -0.607937   -4.424082 H        1 UNL1     0.0362
     68 H         1.4086   1.574039   -4.614103 H        1 UNL1     0.0741
     69 H         1.248545   3.287342   -2.597829 H        1 UNL1     0.0359
     70 H         2.562285   3.18088   -0.791655 H        1 UNL1     0.0600
     71 H         1.032347   2.39821   0.531761 H        1 UNL1     0.0348
     72 H         2.822226   0.872035   1.163559 H        1 UNL1     0.0602
     73 H         3.51398   -2.155309   -2.79725 H        1 UNL1     0.0628
     74 H         5.726504   -0.109973   -2.179218 H        1 UNL1     0.1022
     75 H         3.480922   -7.008396   7.346836 H        1 UNL1     0.0279
     76 H         3.97523   -5.652619   8.280018 H        1 UNL1     0.0279
     77 H         2.374782   -5.700976   7.436498 H        1 UNL1     0.0279
     78 H         2.893669   -7.378959   5.11224 H        1 UNL1     0.1553
     79 H         1.692964   -5.903374   4.558004 H        1 UNL1     0.1484
     80 H         -0.057232   -4.692884   1.409827 H        1 UNL1     0.0317
     81 H         0.928192   -6.14797   1.449678 H        1 UNL1     0.0317
     82 H         0.033886   -6.761676   3.711819 H        1 UNL1     0.0428
     83 H         -1.228001   -6.569374   2.515005 H        1 UNL1     0.0428
     84 H         -0.598377   -3.297143   5.160609 H        1 UNL1     0.0428
     85 H         0.399581   -4.687299   5.40692 H        1 UNL1     0.0428
     86 H         1.40523   -2.782041   4.148544 H        1 UNL1     0.0317
     87 H         0.242723   -2.859779   2.90561 H        1 UNL1     0.0317
     88 H         -3.120513   -5.268736   4.077363 H        1 UNL1     0.0429
     89 H         -2.145245   -6.511851   4.864608 H        1 UNL1     0.0429
     90 H         -3.022565   -3.802879   5.831364 H        1 UNL1     0.0308
     91 H         -2.348051   -6.484215   7.155043 H        1 UNL1     0.0233
     92 H         -2.738217   -5.015889   8.086325 H        1 UNL1     0.0233
     93 H         -3.932628   -5.730456   7.024544 H        1 UNL1     0.0233
     94 H         -0.94954   -3.789177   7.403418 H        1 UNL1     0.0233
     95 H         -0.180546   -4.708572   6.100464 H        1 UNL1     0.0233
     96 H         -0.828438   -3.083588   5.778508 H        1 UNL1     0.0233
     97 H         9.004429   -5.893453   -1.148769 H        1 UNL1     0.0280
     98 H         8.623096   -7.581121   -0.940081 H        1 UNL1     0.0280
     99 H         7.75311   -6.62096   -2.173348 H        1 UNL1     0.0280
     100 H         8.212995   -8.214797   0.927426 H        1 UNL1     0.2922
     101 H         4.662698   1.123473   2.509713 H        1 UNL1     0.0236
     102 H         4.237355   0.770282   4.230295 H        1 UNL1     0.0236
     103 H         3.228699   1.776985   3.237995 H        1 UNL1     0.0236
     104 H         1.725179   1.372371   3.233998 H        1 UNL1     0.2098
     105 H         -0.685967   1.517674   -0.486726 H        1 UNL1     0.0234
     106 H         0.326692   0.52482   -1.57294 H        1 UNL1     0.0234
     107 H         0.0   -0.0   0.0 H        1 UNL1     0.0234
     108 H         3.702579   0.91841   -0.386016 H        1 UNL1     0.2098
     109 H         1.014429   -2.197485   -2.938525 H        1 UNL1     0.0234
     110 H         1.921978   -1.362207   -1.63796 H        1 UNL1     0.0234
     111 H         0.297898   -0.89882   -2.007392 H        1 UNL1     0.0234
     112 H         -1.782974   3.501949   -1.518359 H        1 UNL1     0.0342
     113 H         -0.106066   3.637698   -2.156942 H        1 UNL1     0.0342
     114 H         -1.490431   3.795865   -3.241601 H        1 UNL1     0.0342
     115 H         2.535364   3.360172   -4.680992 H        1 UNL1     0.0234
     116 H         3.308079   4.152772   -3.304226 H        1 UNL1     0.0234
     117 H         3.844917   2.57886   -3.927325 H        1 UNL1     0.0234
     118 H         3.554009   -3.778931   -2.435628 H        1 UNL1     0.0309
     119 H         4.933818   -3.869016   -3.57408 H        1 UNL1     0.0309
     120 H         4.601766   -5.149686   -2.42875 H        1 UNL1     0.0309
     121 H         5.924533   1.585962   -3.647642 H        1 UNL1     0.0524
     122 H         5.823829   -0.175256   -3.525878 H        1 UNL1     0.0524
     123 H         5.655847   0.609066   -5.11659 H        1 UNL1     0.0524
@<TRIPOS>BOND
     1     1     2    1
     2     1    42    1
     3     2     3    2
     4     3     4    1
     5     4     5    2
     6     5     7    1
     7     6    75    1
     8     6    76    1
     9     6    77    1
    10     7     9   am
    11     9    10    1
    12    10    11    2
    13    10    43    1
    14    11    14    1
    15    11    15    1
    16    12    13   ar
    17    12    27   ar
    18    12    43    1
    19    13    14    1
    20    13    30   ar
    21    14    17    2
    22    15    16    1
    23    16    17    1
    24    16    18    1
    25    16    22    1
    26    18    19    1
    27    19    20    1
    28    20    21    1
    29    21    22    1
    30    23    24    1
    31    23    88    1
    32    23    89    1
    33    24    25    1
    34    24    26    1
    35    24    90    1
    36    25    91    1
    37    25    92    1
    38    25    93    1
    39    26    94    1
    40    26    95    1
    41    26    96    1
    42    27    28   ar
    43    28    29   ar
    44    29    30   ar
    45    29    31    1
    46    30    33    1
    47    31    32    1
    48    32    33    1
    49    32    35    1
    50    34    97    1
    51    34    98    1
    52    34    99    1
    53    35    61    1
    54    36    37    1
    55    36    60    1
    56    37    38    1
    57    38    39    1
    58    39    40    1
    59    40    41    1
    60    41    42    1
    61    45   100    1
    62    47   101    1
    63    47   102    1
    64    47   103    1
    65    48   104    1
    66    49   105    1
    67    49   106    1
    68    49   107    1
    69    50   108    1
    70    51    59    1
    71    52   109    1
    72    52   110    1
    73    52   111    1
    74    53    54    1
    75    54    55    2
    76    54    56    1
    77    56   112    1
    78    56   113    1
    79    56   114    1
    80    57   115    1
    81    57   116    1
    82    57   117    1
    83    58   118    1
    84    58   119    1
    85    58   120    1
    86    59   121    1
    87    59   122    1
    88    59   123    1
    89    60    61    2
    90     1    47    1
    91     1    62    1
    92     2    63    1
    93     3    64    1
    94     4    65    1
    95     5     6    1
    96     7     8    2
    97     9    78    1
    98    15    79    1
    99    18    80    1
   100    18    81    1
   101    19    82    1
   102    19    83    1
   103    20    23    1
   104    21    84    1
   105    21    85    1
   106    22    86    1
   107    22    87    1
   108    27    45    1
   109    28    34    1
   110    32    58    1
   111    33    46    2
   112    36    51    1
   113    36    66    1
   114    37    52    1
   115    37    67    1
   116    38    53    1
   117    38    68    1
   118    42    48    1
   119    42    72    1
   120    43    44    2
   121    60    73    1
   122    61    74    1
   123    39    69    1
   124    39    57    1
   125    40    70    1
   126    40    50    1
   127    41    71    1
   128    41    49    1
