@<TRIPOS>MOLECULE
*****
 123 128 0 0 0
SMALL
GASTEIGER

@<TRIPOS>ATOM
     1 C         5.15782   1.766288   0.52603 C.3        1 UNL1     0.0009
     2 C         6.596563   2.579572   -0.313985 C.2        1 UNL1     -0.0787
     3 C         7.882779   2.487595   -0.972191 C.2        1 UNL1     -0.0649
     4 C         8.760119   3.7276   -1.719868 C.2        1 UNL1     -0.0542
     5 C         9.784664   4.026057   -2.651698 C.2        1 UNL1     0.0115
     6 C         10.92038   3.406682   -3.511842 C.3        1 UNL1     -0.0348
     7 C         9.878089   5.510953   -3.25448 C.2        1 UNL1     0.2441
     8 O         10.696604   6.334861   -2.870118 O.2        1 UNL1     -0.2702
     9 N         9.134148   5.71762   -4.429211 N.am        1 UNL1     -0.2772
     10 C         7.84813   6.098837   -4.122364 C.2        1 UNL1     0.1049
     11 C         7.00425   5.123651   -3.837581 C.2        1 UNL1     0.0801
     12 C         6.535272   7.69761   -2.716071 C.ar        1 UNL1     0.0753
     13 C         5.77777   6.565915   -2.275544 C.ar        1 UNL1     0.0305
     14 C         5.903469   5.262042   -2.922975 C.2        1 UNL1     0.0924
     15 N         7.132802   3.795483   -3.99874 N.pl3        1 UNL1     -0.3170
     16 C         5.863331   3.190907   -3.69348 C.3        1 UNL1     0.1275
     17 N         5.217479   4.141662   -2.715388 N.2        1 UNL1     -0.2557
     18 C         5.017878   3.249493   -4.962132 C.3        1 UNL1     0.0016
     19 C         5.782086   2.570638   -6.087623 C.3        1 UNL1     0.0026
     20 N         6.055065   1.192733   -5.703061 N.3        1 UNL1     -0.3018
     21 C         6.811555   1.032541   -4.459505 C.3        1 UNL1     0.0026
     22 C         6.023505   1.717752   -3.341758 C.3        1 UNL1     0.0016
     23 C         6.5093   0.377233   -6.811787 C.3        1 UNL1     0.0012
     24 C         5.35961   0.121898   -7.799093 C.3        1 UNL1     -0.0339
     25 C         5.378886   1.132012   -8.958124 C.3        1 UNL1     -0.0615
     26 C         5.415003   -1.309441   -8.30405 C.3        1 UNL1     -0.0615
     27 C         6.322625   8.963376   -2.175018 C.ar        1 UNL1     0.1347
     28 C         5.356812   9.22729   -1.220238 C.ar        1 UNL1     0.0342
     29 C         4.656751   8.089248   -0.766434 C.ar        1 UNL1     0.1435
     30 C         4.884028   6.809132   -1.273254 C.ar        1 UNL1     0.0774
     31 O         3.610232   8.197105   0.081016 O.3        1 UNL1     -0.4436
     32 C         2.894044   6.961906   -0.068086 C.3        1 UNL1     0.3143
     33 C         3.914233   5.973728   -0.596227 C.2        1 UNL1     0.2504
     34 C         4.90222   10.590773   -0.779375 C.3        1 UNL1     -0.0327
     35 O         2.527147   6.521057   1.245036 O.2        1 UNL1     -0.4528
     36 C         -0.706197   4.577627   0.824734 C.3        1 UNL1     0.0854
     37 C         -1.001385   3.317828   -0.077092 C.3        1 UNL1     0.0236
     38 C         -1.601933   2.052874   0.70456 C.3        1 UNL1     0.1131
     39 C         -0.882017   1.521882   2.009182 C.3        1 UNL1     0.0200
     40 C         0.779432   1.382452   2.060028 C.3        1 UNL1     0.0661
     41 C         1.748672   0.619699   0.895386 C.3        1 UNL1     0.0091
     42 C         3.458244   0.989827   0.34242 C.3        1 UNL1     0.0661
     43 C         7.492797   7.495842   -3.83173 C.2        1 UNL1     0.2131
     44 O         7.893619   8.396934   -4.545952 O.2        1 UNL1     -0.2851
     45 O         7.133747   10.002481   -2.626438 O.3        1 UNL1     -0.5056
     46 O         3.933944   4.769987   -0.467888 O.2        1 UNL1     -0.2836
     47 C         5.54715   1.335237   1.965682 C.3        1 UNL1     -0.0566
     48 O         3.91159   -0.419765   0.423932 O.3        1 UNL1     -0.3909
     49 C         0.922818   0.386633   -0.350061 C.3        1 UNL1     -0.0577
     50 O         1.372698   2.601709   2.458992 O.3        1 UNL1     -0.3910
     51 O         -0.837921   4.384536   2.214985 O.3        1 UNL1     -0.3753
     52 C         0.050559   3.163703   -1.223655 C.3        1 UNL1     -0.0564
     53 O         -2.195232   1.013562   -0.201063 O.3        1 UNL1     -0.4608
     54 C         -2.414248   -0.298058   0.130015 C.2        1 UNL1     0.3042
     55 O         -1.835579   -1.28775   -0.316628 O.2        1 UNL1     -0.2512
     56 C         -3.449081   -0.4827   1.203208 C.3        1 UNL1     0.0332
     57 C         -1.613098   2.185503   3.267476 C.3        1 UNL1     -0.0567
     58 C         1.824462   7.205283   -1.158174 C.3        1 UNL1     0.0210
     59 C         -1.19853   5.552581   2.95085 C.3        1 UNL1     0.0372
     60 C         0.621794   5.212153   0.603425 C.2        1 UNL1     -0.0208
     61 C         1.527863   5.648944   1.479209 C.2        1 UNL1     0.0882
     62 H         4.677705   2.748491   0.612502 H        1 UNL1     0.0365
     63 H         6.325747   3.632145   -0.208071 H        1 UNL1     0.0576
     64 H         8.345366   1.52293   -1.192514 H        1 UNL1     0.0615
     65 H         8.267543   4.640436   -1.374062 H        1 UNL1     0.0622
     66 H         -1.451763   5.322028   0.511612 H        1 UNL1     0.0645
     67 H         -1.864405   3.625257   -0.692921 H        1 UNL1     0.0362
     68 H         -2.552723   2.485469   1.051521 H        1 UNL1     0.0741
     69 H         -1.210919   0.509143   2.200471 H        1 UNL1     0.0359
     70 H         0.888393   0.720678   2.940507 H        1 UNL1     0.0600
     71 H         1.793516   -0.402198   1.320442 H        1 UNL1     0.0348
     72 H         3.344666   1.475559   1.322461 H        1 UNL1     0.0602
     73 H         0.745161   5.412034   -0.431986 H        1 UNL1     0.0628
     74 H         1.504694   5.435952   2.548477 H        1 UNL1     0.1022
     75 H         10.968079   2.301255   -3.360874 H        1 UNL1     0.0279
     76 H         10.812905   3.491328   -4.590893 H        1 UNL1     0.0279
     77 H         11.922333   3.71444   -3.178559 H        1 UNL1     0.0279
     78 H         9.078548   4.848558   -4.9562 H        1 UNL1     0.1553
     79 H         7.803357   3.371283   -4.613022 H        1 UNL1     0.1484
     80 H         4.057294   2.754569   -4.774796 H        1 UNL1     0.0317
     81 H         4.789021   4.285965   -5.232321 H        1 UNL1     0.0317
     82 H         6.712224   3.105929   -6.328909 H        1 UNL1     0.0428
     83 H         5.162086   2.625335   -6.982977 H        1 UNL1     0.0428
     84 H         6.933921   -0.010606   -4.151801 H        1 UNL1     0.0428
     85 H         7.840867   1.404631   -4.556371 H        1 UNL1     0.0428
     86 H         6.53541   1.467398   -2.43112 H        1 UNL1     0.0317
     87 H         5.045121   1.236204   -3.223546 H        1 UNL1     0.0317
     88 H         7.304292   0.924473   -7.335058 H        1 UNL1     0.0429
     89 H         6.946143   -0.566299   -6.460093 H        1 UNL1     0.0429
     90 H         4.404014   0.215998   -7.269758 H        1 UNL1     0.0308
     91 H         6.329372   1.098644   -9.499017 H        1 UNL1     0.0233
     92 H         4.561909   0.934684   -9.656135 H        1 UNL1     0.0233
     93 H         5.244605   2.164771   -8.614304 H        1 UNL1     0.0233
     94 H         4.722758   -1.441158   -9.14267 H        1 UNL1     0.0233
     95 H         6.42292   -1.541592   -8.659254 H        1 UNL1     0.0233
     96 H         5.145149   -2.020537   -7.518244 H        1 UNL1     0.0233
     97 H         4.104654   10.536475   -0.044412 H        1 UNL1     0.0280
     98 H         5.710009   11.162853   -0.304552 H        1 UNL1     0.0280
     99 H         4.53165   11.155743   -1.650342 H        1 UNL1     0.0280
     100 H         6.665851   10.751632   -2.951198 H        1 UNL1     0.2922
     101 H         4.683367   0.895897   2.464195 H        1 UNL1     0.0236
     102 H         5.990042   2.141441   2.549518 H        1 UNL1     0.0236
     103 H         6.307528   0.536478   1.96746 H        1 UNL1     0.0236
     104 H         4.328883   -0.545278   1.298623 H        1 UNL1     0.2098
     105 H         0.710881   1.285765   -0.923171 H        1 UNL1     0.0234
     106 H         1.298658   -0.399133   -1.005227 H        1 UNL1     0.0234
     107 H         0.0   -0.0   0.0 H        1 UNL1     0.0234
     108 H         1.173439   3.261395   1.766982 H        1 UNL1     0.2098
     109 H         1.072772   3.047057   -0.837408 H        1 UNL1     0.0234
     110 H         -0.178007   2.34102   -1.909726 H        1 UNL1     0.0234
     111 H         0.076732   4.050534   -1.870797 H        1 UNL1     0.0234
     112 H         -3.572601   -1.547737   1.421804 H        1 UNL1     0.0342
     113 H         -3.206958   0.075944   2.106058 H        1 UNL1     0.0342
     114 H         -4.407987   -0.103289   0.824115 H        1 UNL1     0.0342
     115 H         -2.676539   1.912998   3.312449 H        1 UNL1     0.0234
     116 H         -1.166337   1.924627   4.228932 H        1 UNL1     0.0234
     117 H         -1.677323   3.285689   3.209104 H        1 UNL1     0.0234
     118 H         0.919118   7.687954   -0.750267 H        1 UNL1     0.0309
     119 H         2.196688   7.796421   -2.000911 H        1 UNL1     0.0309
     120 H         1.441936   6.272777   -1.587373 H        1 UNL1     0.0309
     121 H         -0.401993   6.284347   2.818923 H        1 UNL1     0.0524
     122 H         -2.132347   6.008115   2.581373 H        1 UNL1     0.0524
     123 H         -1.316031   5.312139   4.003691 H        1 UNL1     0.0524
@<TRIPOS>BOND
     1     1     2    1
     2     1    42    1
     3     2     3    2
     4     3     4    1
     5     4     5    2
     6     5     7    1
     7     6    75    1
     8     6    76    1
     9     6    77    1
    10     7     9   am
    11     9    10    1
    12    10    11    2
    13    10    43    1
    14    11    14    1
    15    11    15    1
    16    12    13   ar
    17    12    27   ar
    18    12    43    1
    19    13    14    1
    20    13    30   ar
    21    14    17    2
    22    15    16    1
    23    16    17    1
    24    16    18    1
    25    16    22    1
    26    18    19    1
    27    19    20    1
    28    20    21    1
    29    21    22    1
    30    23    24    1
    31    23    88    1
    32    23    89    1
    33    24    25    1
    34    24    26    1
    35    24    90    1
    36    25    91    1
    37    25    92    1
    38    25    93    1
    39    26    94    1
    40    26    95    1
    41    26    96    1
    42    27    28   ar
    43    28    29   ar
    44    29    30   ar
    45    29    31    1
    46    30    33    1
    47    31    32    1
    48    32    33    1
    49    32    35    1
    50    34    97    1
    51    34    98    1
    52    34    99    1
    53    35    61    1
    54    36    37    1
    55    36    60    1
    56    37    38    1
    57    38    39    1
    58    39    40    1
    59    40    41    1
    60    41    42    1
    61    45   100    1
    62    47   101    1
    63    47   102    1
    64    47   103    1
    65    48   104    1
    66    49   105    1
    67    49   106    1
    68    49   107    1
    69    50   108    1
    70    51    59    1
    71    52   109    1
    72    52   110    1
    73    52   111    1
    74    53    54    1
    75    54    55    2
    76    54    56    1
    77    56   112    1
    78    56   113    1
    79    56   114    1
    80    57   115    1
    81    57   116    1
    82    57   117    1
    83    58   118    1
    84    58   119    1
    85    58   120    1
    86    59   121    1
    87    59   122    1
    88    59   123    1
    89    60    61    2
    90     1    47    1
    91     1    62    1
    92     2    63    1
    93     3    64    1
    94     4    65    1
    95     5     6    1
    96     7     8    2
    97     9    78    1
    98    15    79    1
    99    18    80    1
   100    18    81    1
   101    19    82    1
   102    19    83    1
   103    20    23    1
   104    21    84    1
   105    21    85    1
   106    22    86    1
   107    22    87    1
   108    27    45    1
   109    28    34    1
   110    32    58    1
   111    33    46    2
   112    36    51    1
   113    36    66    1
   114    37    52    1
   115    37    67    1
   116    38    53    1
   117    38    68    1
   118    42    48    1
   119    42    72    1
   120    43    44    2
   121    60    73    1
   122    61    74    1
   123    39    69    1
   124    39    57    1
   125    40    70    1
   126    40    50    1
   127    41    71    1
   128    41    49    1
