@<TRIPOS>MOLECULE
*****
 123 128 0 0 0
SMALL
GASTEIGER

@<TRIPOS>ATOM
     1 C         1.296066   -1.817168   -5.002986 C.3        1 UNL1     0.0009
     2 C         1.225116   -1.478397   -6.824314 C.2        1 UNL1     -0.0787
     3 C         0.630227   -1.712703   -8.123258 C.2        1 UNL1     -0.0649
     4 C         0.966276   -0.918543   -9.58022 C.2        1 UNL1     -0.0542
     5 C         0.483435   -0.62066   -10.878376 C.2        1 UNL1     0.0115
     6 C         -0.623748   -0.956593   -11.915013 C.3        1 UNL1     -0.0348
     7 C         1.143781   0.594876   -11.692872 C.2        1 UNL1     0.2441
     8 O         1.956127   0.429555   -12.592476 O.2        1 UNL1     -0.2702
     9 N         0.534469   1.84424   -11.483161 N.am        1 UNL1     -0.2772
     10 C         1.098907   2.478029   -10.40009 C.2        1 UNL1     0.1049
     11 C         0.636306   2.126739   -9.213996 C.2        1 UNL1     0.0801
     12 C         3.302108   3.108075   -9.396954 C.ar        1 UNL1     0.0753
     13 C         2.827239   2.521956   -8.180577 C.ar        1 UNL1     0.0305
     14 C         1.429279   2.130537   -8.014598 C.2        1 UNL1     0.0924
     15 N         -0.446564   1.399504   -8.889885 N.pl3        1 UNL1     -0.3170
     16 C         -0.600302   1.453448   -7.460302 C.3        1 UNL1     0.1275
     17 N         0.798849   1.670281   -6.937728 N.2        1 UNL1     -0.2557
     18 C         -1.375369   2.727106   -7.136623 C.3        1 UNL1     0.0016
     19 C         -2.685048   2.708873   -7.908632 C.3        1 UNL1     0.0026
     20 N         -3.439137   1.524241   -7.522593 N.3        1 UNL1     -0.3018
     21 C         -2.749701   0.250557   -7.73887 C.3        1 UNL1     0.0026
     22 C         -1.439271   0.288976   -6.950712 C.3        1 UNL1     0.0016
     23 C         -4.817932   1.563618   -7.967585 C.3        1 UNL1     0.0012
     24 C         -5.609043   2.617868   -7.177359 C.3        1 UNL1     -0.0339
     25 C         -6.193491   3.69505   -8.105882 C.3        1 UNL1     -0.0615
     26 C         -6.69125   1.945327   -6.350742 C.3        1 UNL1     -0.0615
     27 C         4.604794   3.588957   -9.505944 C.ar        1 UNL1     0.1347
     28 C         5.508324   3.574774   -8.458336 C.ar        1 UNL1     0.0342
     29 C         5.034477   2.94878   -7.285833 C.ar        1 UNL1     0.1435
     30 C         3.74392   2.430016   -7.173722 C.ar        1 UNL1     0.0774
     31 O         5.756025   2.953147   -6.14375 O.3        1 UNL1     -0.4436
     32 C         4.799813   2.675548   -5.109598 C.3        1 UNL1     0.3143
     33 C         3.658979   1.961734   -5.806146 C.2        1 UNL1     0.2504
     34 C         6.827973   4.294034   -8.422369 C.3        1 UNL1     -0.0327
     35 O         5.400654   1.72956   -4.216653 O.2        1 UNL1     -0.4528
     36 C         3.895893   2.421432   -0.801233 C.3        1 UNL1     0.0854
     37 C         2.381131   2.424275   -0.361904 C.3        1 UNL1     0.0236
     38 C         2.03355   1.461005   0.872213 C.3        1 UNL1     0.1131
     39 C         2.497641   -0.050959   0.843024 C.3        1 UNL1     0.0200
     40 C         2.331113   -0.959188   -0.546158 C.3        1 UNL1     0.0661
     41 C         0.921339   -1.098342   -1.479316 C.3        1 UNL1     0.0091
     42 C         0.708684   -1.335622   -3.285937 C.3        1 UNL1     0.0661
     43 C         2.33408   3.268319   -10.510284 C.2        1 UNL1     0.2131
     44 O         2.475538   4.071087   -11.414878 O.2        1 UNL1     -0.2851
     45 O         5.001717   4.10282   -10.73876 O.3        1 UNL1     -0.5056
     46 O         2.871241   1.168109   -5.341945 O.2        1 UNL1     -0.2836
     47 C         1.945108   -3.20207   -4.736952 C.3        1 UNL1     -0.0566
     48 O         -0.286758   -2.425201   -3.140917 O.3        1 UNL1     -0.3909
     49 C         -0.050882   -0.018854   -1.058619 C.3        1 UNL1     -0.0577
     50 O         3.454206   -0.796731   -1.388769 O.3        1 UNL1     -0.3910
     51 O         4.715348   1.456299   -0.181199 O.3        1 UNL1     -0.3753
     52 C         1.420868   2.587463   -1.585103 C.3        1 UNL1     -0.0564
     53 O         0.694306   1.736916   1.49078 O.3        1 UNL1     -0.4608
     54 C         -0.16307   0.789594   1.986174 C.2        1 UNL1     0.3042
     55 O         -1.17976   0.349461   1.450952 O.2        1 UNL1     -0.2512
     56 C         0.267521   0.221406   3.308471 C.3        1 UNL1     0.0332
     57 C         3.885177   -0.14489   1.633021 C.3        1 UNL1     -0.0567
     58 C         4.294726   4.046053   -4.601532 C.3        1 UNL1     0.0210
     59 C         5.637935   1.977851   0.774145 C.3        1 UNL1     0.0372
     60 C         4.125335   2.301637   -2.266896 C.2        1 UNL1     -0.0208
     61 C         4.987636   1.545759   -2.947945 C.2        1 UNL1     0.0882
     62 H         2.097664   -1.073878   -4.9154 H        1 UNL1     0.0365
     63 H         2.078537   -0.806995   -6.939909 H        1 UNL1     0.0576
     64 H         -0.249211   -2.349252   -8.243675 H        1 UNL1     0.0615
     65 H         1.895779   -0.380454   -9.37536 H        1 UNL1     0.0622
     66 H         4.267165   3.416543   -0.518465 H        1 UNL1     0.0645
     67 H         2.234817   3.420915   0.089605 H        1 UNL1     0.0362
     68 H         2.642585   1.93809   1.655149 H        1 UNL1     0.0741
     69 H         1.912741   -0.608498   1.562365 H        1 UNL1     0.0359
     70 H         2.44662   -1.975905   -0.124253 H        1 UNL1     0.0600
     71 H         0.46732   -1.993739   -1.011249 H        1 UNL1     0.0348
     72 H         1.739316   -1.644638   -3.058734 H        1 UNL1     0.0602
     73 H         3.554243   3.040959   -2.771381 H        1 UNL1     0.0628
     74 H         5.56635   0.728647   -2.515906 H        1 UNL1     0.1022
     75 H         -1.370923   -1.661005   -11.476189 H        1 UNL1     0.0279
     76 H         -1.247552   -0.12856   -12.244103 H        1 UNL1     0.0279
     77 H         -0.246253   -1.543097   -12.765431 H        1 UNL1     0.0279
     78 H         -0.454265   1.712818   -11.280157 H        1 UNL1     0.1553
     79 H         -1.215638   1.237268   -9.513695 H        1 UNL1     0.1484
     80 H         -1.548787   2.774909   -6.054769 H        1 UNL1     0.0317
     81 H         -0.793656   3.616862   -7.400436 H        1 UNL1     0.0317
     82 H         -2.517408   2.734617   -8.995437 H        1 UNL1     0.0428
     83 H         -3.220952   3.626659   -7.664652 H        1 UNL1     0.0428
     84 H         -3.304166   -0.616919   -7.36757 H        1 UNL1     0.0428
     85 H         -2.607713   0.038929   -8.807687 H        1 UNL1     0.0428
     86 H         -1.028522   -0.700966   -7.023433 H        1 UNL1     0.0317
     87 H         -1.649225   0.398591   -5.879731 H        1 UNL1     0.0317
     88 H         -4.826348   1.843536   -9.029126 H        1 UNL1     0.0429
     89 H         -5.289782   0.575496   -7.891789 H        1 UNL1     0.0429
     90 H         -4.940131   3.103398   -6.456921 H        1 UNL1     0.0308
     91 H         -6.415224   3.288108   -9.09701 H        1 UNL1     0.0233
     92 H         -7.105956   4.118663   -7.679772 H        1 UNL1     0.0233
     93 H         -5.505888   4.53653   -8.254031 H        1 UNL1     0.0233
     94 H         -6.334945   1.774732   -5.329086 H        1 UNL1     0.0233
     95 H         -7.57414   2.588419   -6.296887 H        1 UNL1     0.0233
     96 H         -6.981479   0.982619   -6.780777 H        1 UNL1     0.0233
     97 H         6.88866   4.992876   -7.593413 H        1 UNL1     0.0280
     98 H         7.672213   3.603727   -8.295907 H        1 UNL1     0.0280
     99 H         6.967116   4.856983   -9.359824 H        1 UNL1     0.0280
     100 H         4.806359   3.549769   -11.474689 H        1 UNL1     0.2922
     101 H         2.304793   -3.24822   -3.709259 H        1 UNL1     0.0236
     102 H         2.724583   -3.455159   -5.454829 H        1 UNL1     0.0236
     103 H         1.213875   -4.023925   -4.814702 H        1 UNL1     0.0236
     104 H         -0.010899   -2.977877   -2.38367 H        1 UNL1     0.2098
     105 H         0.197424   0.975398   -1.421411 H        1 UNL1     0.0234
     106 H         -1.097687   -0.244535   -1.261582 H        1 UNL1     0.0234
     107 H         0.0   0.0   0.0 H        1 UNL1     0.0234
     108 H         3.212927   -1.152689   -2.265608 H        1 UNL1     0.2098
     109 H         1.586147   3.532859   -2.120473 H        1 UNL1     0.0234
     110 H         1.477299   1.751889   -2.291059 H        1 UNL1     0.0234
     111 H         0.367857   2.602313   -1.273828 H        1 UNL1     0.0234
     112 H         -0.446086   -0.540631   3.636204 H        1 UNL1     0.0342
     113 H         1.27893   -0.180517   3.271683 H        1 UNL1     0.0342
     114 H         0.258356   1.032363   4.049707 H        1 UNL1     0.0342
     115 H         3.985638   -1.098126   2.170085 H        1 UNL1     0.0234
     116 H         4.766098   -0.031299   0.998099 H        1 UNL1     0.0234
     117 H         3.968416   0.577313   2.463343 H        1 UNL1     0.0234
     118 H         4.647102   4.264387   -3.57822 H        1 UNL1     0.0309
     119 H         4.569802   4.876244   -5.259802 H        1 UNL1     0.0309
     120 H         3.204005   4.08311   -4.506347 H        1 UNL1     0.0309
     121 H         5.060758   2.356066   1.617457 H        1 UNL1     0.0524
     122 H         6.322228   1.204221   1.160509 H        1 UNL1     0.0524
     123 H         6.224351   2.778379   0.332144 H        1 UNL1     0.0524
@<TRIPOS>BOND
     1     1     2    1
     2     1    42    1
     3     2     3    2
     4     3     4    1
     5     4     5    2
     6     5     7    1
     7     6    75    1
     8     6    76    1
     9     6    77    1
    10     7     9   am
    11     9    10    1
    12    10    11    2
    13    10    43    1
    14    11    14    1
    15    11    15    1
    16    12    13   ar
    17    12    27   ar
    18    12    43    1
    19    13    14    1
    20    13    30   ar
    21    14    17    2
    22    15    16    1
    23    16    17    1
    24    16    18    1
    25    16    22    1
    26    18    19    1
    27    19    20    1
    28    20    21    1
    29    21    22    1
    30    23    24    1
    31    23    88    1
    32    23    89    1
    33    24    25    1
    34    24    26    1
    35    24    90    1
    36    25    91    1
    37    25    92    1
    38    25    93    1
    39    26    94    1
    40    26    95    1
    41    26    96    1
    42    27    28   ar
    43    28    29   ar
    44    29    30   ar
    45    29    31    1
    46    30    33    1
    47    31    32    1
    48    32    33    1
    49    32    35    1
    50    34    97    1
    51    34    98    1
    52    34    99    1
    53    35    61    1
    54    36    37    1
    55    36    60    1
    56    37    38    1
    57    38    39    1
    58    39    40    1
    59    40    41    1
    60    41    42    1
    61    45   100    1
    62    47   101    1
    63    47   102    1
    64    47   103    1
    65    48   104    1
    66    49   105    1
    67    49   106    1
    68    49   107    1
    69    50   108    1
    70    51    59    1
    71    52   109    1
    72    52   110    1
    73    52   111    1
    74    53    54    1
    75    54    55    2
    76    54    56    1
    77    56   112    1
    78    56   113    1
    79    56   114    1
    80    57   115    1
    81    57   116    1
    82    57   117    1
    83    58   118    1
    84    58   119    1
    85    58   120    1
    86    59   121    1
    87    59   122    1
    88    59   123    1
    89    60    61    2
    90     1    47    1
    91     1    62    1
    92     2    63    1
    93     3    64    1
    94     4    65    1
    95     5     6    1
    96     7     8    2
    97     9    78    1
    98    15    79    1
    99    18    80    1
   100    18    81    1
   101    19    82    1
   102    19    83    1
   103    20    23    1
   104    21    84    1
   105    21    85    1
   106    22    86    1
   107    22    87    1
   108    27    45    1
   109    28    34    1
   110    32    58    1
   111    33    46    2
   112    36    51    1
   113    36    66    1
   114    37    52    1
   115    37    67    1
   116    38    53    1
   117    38    68    1
   118    42    48    1
   119    42    72    1
   120    43    44    2
   121    60    73    1
   122    61    74    1
   123    39    69    1
   124    39    57    1
   125    40    70    1
   126    40    50    1
   127    41    71    1
   128    41    49    1
