@<TRIPOS>MOLECULE
*****
 123 128 0 0 0
SMALL
GASTEIGER

@<TRIPOS>ATOM
     1 C         1.881376   -3.723504   0.449039 C.3        1 UNL1     0.0009
     2 C         2.718148   -4.727635   -0.865712 C.2        1 UNL1     -0.0787
     3 C         2.71493   -5.846736   -1.784215 C.2        1 UNL1     -0.0649
     4 C         3.868906   -6.229126   -2.96255 C.2        1 UNL1     -0.0542
     5 C         4.113537   -6.950514   -4.157051 C.2        1 UNL1     0.0115
     6 C         3.529833   -8.019471   -5.121388 C.3        1 UNL1     -0.0348
     7 C         5.382412   -6.555089   -5.057374 C.2        1 UNL1     0.2441
     8 O         6.421564   -7.200581   -5.062806 O.2        1 UNL1     -0.2702
     9 N         5.130358   -5.573598   -6.031692 N.am        1 UNL1     -0.2772
     10 C         5.317169   -4.315854   -5.505855 C.2        1 UNL1     0.1049
     11 C         4.301587   -3.811259   -4.82895 C.2        1 UNL1     0.0801
     12 C         6.93305   -2.938946   -4.182833 C.ar        1 UNL1     0.0753
     13 C         5.826296   -2.584961   -3.34713 C.ar        1 UNL1     0.0305
     14 C         4.45096   -2.905509   -3.722297 C.2        1 UNL1     0.0924
     15 N         3.028605   -4.233108   -4.739014 N.pl3        1 UNL1     -0.3170
     16 C         2.285373   -3.236032   -4.015343 C.3        1 UNL1     0.1275
     17 N         3.309191   -2.57229   -3.127105 N.2        1 UNL1     -0.2557
     18 C         1.849138   -2.177105   -5.023348 C.3        1 UNL1     0.0016
     19 C         1.068057   -2.857548   -6.136227 C.3        1 UNL1     0.0026
     20 N         -0.083574   -3.532788   -5.554142 N.3        1 UNL1     -0.3018
     21 C         0.232589   -4.527732   -4.527255 C.3        1 UNL1     0.0026
     22 C         1.013011   -3.821592   -3.417209 C.3        1 UNL1     0.0016
     23 C         -1.050569   -3.956044   -6.547328 C.3        1 UNL1     0.0012
     24 C         -1.767974   -2.739527   -7.153276 C.3        1 UNL1     -0.0339
     25 C         -1.388445   -2.540816   -8.629938 C.3        1 UNL1     -0.0615
     26 C         -3.269935   -2.879093   -6.976041 C.3        1 UNL1     -0.0615
     27 C         8.227941   -2.525061   -3.879396 C.ar        1 UNL1     0.1347
     28 C         8.53293   -1.723903   -2.793496 C.ar        1 UNL1     0.0342
     29 C         7.434865   -1.428575   -1.957914 C.ar        1 UNL1     0.1435
     30 C         6.138052   -1.86644   -2.22952 C.ar        1 UNL1     0.0774
     31 O         7.548772   -0.569172   -0.921835 O.3        1 UNL1     -0.4436
     32 C         6.200881   -0.167957   -0.633584 C.3        1 UNL1     0.3143
     33 C         5.330665   -1.282141   -1.17905 C.2        1 UNL1     0.2504
     34 C         9.847045   -1.03687   -2.546136 C.3        1 UNL1     -0.0327
     35 O         6.048566   -0.179114   0.791172 O.2        1 UNL1     -0.4528
     36 C         3.466268   2.487995   1.5826 C.3        1 UNL1     0.0854
     37 C         1.984658   2.626533   1.059951 C.3        1 UNL1     0.0236
     38 C         0.870177   2.733386   2.208105 C.3        1 UNL1     0.1131
     39 C         0.843924   1.669302   3.378279 C.3        1 UNL1     0.0200
     40 C         1.051481   0.047101   3.04992 C.3        1 UNL1     0.0661
     41 C         0.221246   -0.841478   1.867234 C.3        1 UNL1     0.0091
     42 C         0.765523   -2.267692   0.849845 C.3        1 UNL1     0.0661
     43 C         6.643959   -3.686153   -5.43198 C.2        1 UNL1     0.2131
     44 O         7.392166   -3.706691   -6.39245 O.2        1 UNL1     -0.2851
     45 O         9.254813   -2.950929   -4.719401 O.3        1 UNL1     -0.5056
     46 O         4.228335   -1.624766   -0.813908 O.2        1 UNL1     -0.2836
     47 C         1.919394   -4.474473   1.807193 C.3        1 UNL1     -0.0566
     48 O         -0.458422   -3.064431   1.107299 O.3        1 UNL1     -0.3909
     49 C         -0.481183   0.12186   0.936607 C.3        1 UNL1     -0.0577
     50 O         2.424251   -0.288898   3.031711 O.3        1 UNL1     -0.3910
     51 O         3.614416   2.300462   2.971957 O.3        1 UNL1     -0.3753
     52 C         1.751276   1.807393   -0.251343 C.3        1 UNL1     -0.0564
     53 O         -0.462328   3.210611   1.709094 O.3        1 UNL1     -0.4608
     54 C         -1.445648   3.772358   2.480749 C.2        1 UNL1     0.3042
     55 O         -2.474853   3.23442   2.887194 O.2        1 UNL1     -0.2512
     56 C         -1.153108   5.187461   2.89138 C.3        1 UNL1     0.0332
     57 C         1.651176   2.28922   4.612062 C.3        1 UNL1     -0.0567
     58 C         5.941302   1.11581   -1.45583 C.3        1 UNL1     0.0210
     59 C         4.875358   2.70824   3.500737 C.3        1 UNL1     0.0372
     60 C         4.270883   1.426818   0.918024 C.2        1 UNL1     -0.0208
     61 C         5.087003   0.508341   1.436765 C.2        1 UNL1     0.0882
     62 H         2.738717   -3.039644   0.445468 H        1 UNL1     0.0365
     63 H         3.688197   -4.228733   -0.916436 H        1 UNL1     0.0576
     64 H         1.836393   -6.484113   -1.906821 H        1 UNL1     0.0615
     65 H         4.724704   -5.600046   -2.703028 H        1 UNL1     0.0622
     66 H         3.94387   3.440832   1.314192 H        1 UNL1     0.0645
     67 H         1.947983   3.639809   0.623503 H        1 UNL1     0.0362
     68 H         1.18177   3.677921   2.679577 H        1 UNL1     0.0741
     69 H         -0.129999   1.693286   3.84871 H        1 UNL1     0.0359
     70 H         0.672578   -0.388591   3.994201 H        1 UNL1     0.0600
     71 H         -0.62792   -1.2192   2.469896 H        1 UNL1     0.0348
     72 H         1.454362   -2.225502   1.706021 H        1 UNL1     0.0602
     73 H         4.218575   1.556444   -0.134453 H        1 UNL1     0.0628
     74 H         5.155281   0.273854   2.499587 H        1 UNL1     0.1022
     75 H         3.152057   -8.900139   -4.548027 H        1 UNL1     0.0279
     76 H         2.657535   -7.725472   -5.700809 H        1 UNL1     0.0279
     77 H         4.298697   -8.486411   -5.754252 H        1 UNL1     0.0279
     78 H         4.161781   -5.636717   -6.338207 H        1 UNL1     0.1553
     79 H         2.601294   -4.858546   -5.397167 H        1 UNL1     0.1484
     80 H         1.240105   -1.423649   -4.509393 H        1 UNL1     0.0317
     81 H         2.71568   -1.650478   -5.437376 H        1 UNL1     0.0317
     82 H         1.695464   -3.56178   -6.702204 H        1 UNL1     0.0428
     83 H         0.768235   -2.08474   -6.844694 H        1 UNL1     0.0428
     84 H         -0.651568   -4.962027   -4.050321 H        1 UNL1     0.0428
     85 H         0.762099   -5.394236   -4.946905 H        1 UNL1     0.0428
     86 H         1.11036   -4.543332   -2.627524 H        1 UNL1     0.0317
     87 H         0.395401   -3.034749   -2.967173 H        1 UNL1     0.0317
     88 H         -0.511195   -4.478414   -7.348265 H        1 UNL1     0.0429
     89 H         -1.769494   -4.66991   -6.125053 H        1 UNL1     0.0429
     90 H         -1.482867   -1.839732   -6.595336 H        1 UNL1     0.0308
     91 H         -1.055977   -3.47871   -9.084825 H        1 UNL1     0.0233
     92 H         -2.235523   -2.147699   -9.196972 H        1 UNL1     0.0233
     93 H         -0.573114   -1.818555   -8.758034 H        1 UNL1     0.0233
     94 H         -3.674933   -3.574546   -7.719114 H        1 UNL1     0.0233
     95 H         -3.493423   -3.278995   -5.983018 H        1 UNL1     0.0233
     96 H         -3.776474   -1.916744   -7.091234 H        1 UNL1     0.0233
     97 H         10.061373   -0.936826   -1.486285 H        1 UNL1     0.0280
     98 H         10.691793   -1.593661   -2.972328 H        1 UNL1     0.0280
     99 H         9.825841   -0.028572   -2.991086 H        1 UNL1     0.0280
     100 H         9.252915   -3.873871   -4.903242 H        1 UNL1     0.2922
     101 H         2.66801   -4.021587   2.456904 H        1 UNL1     0.0236
     102 H         2.067467   -5.548433   1.699176 H        1 UNL1     0.0236
     103 H         0.971186   -4.375894   2.361609 H        1 UNL1     0.0236
     104 H         -0.334026   -3.52976   1.957573 H        1 UNL1     0.2098
     105 H         -1.539839   -0.081114   0.795679 H        1 UNL1     0.0234
     106 H         -0.326273   1.175176   1.169961 H        1 UNL1     0.0234
     107 H         0.0   0.0   0.0 H        1 UNL1     0.0234
     108 H         2.901778   0.415842   3.510331 H        1 UNL1     0.2098
     109 H         2.224742   0.816414   -0.212588 H        1 UNL1     0.0234
     110 H         0.691984   1.697612   -0.507453 H        1 UNL1     0.0234
     111 H         2.185751   2.310409   -1.125502 H        1 UNL1     0.0234
     112 H         -1.96403   5.567772   3.519962 H        1 UNL1     0.0342
     113 H         -0.192459   5.277106   3.396316 H        1 UNL1     0.0342
     114 H         -1.111478   5.806249   1.984444 H        1 UNL1     0.0342
     115 H         1.284216   3.28991   4.878797 H        1 UNL1     0.0234
     116 H         1.620577   1.676701   5.515352 H        1 UNL1     0.0234
     117 H         2.708903   2.504403   4.38217 H        1 UNL1     0.0234
     118 H         6.147497   2.030407   -0.872733 H        1 UNL1     0.0309
     119 H         6.511193   1.150404   -2.389762 H        1 UNL1     0.0309
     120 H         4.888892   1.228367   -1.738443 H        1 UNL1     0.0309
     121 H         5.558051   1.863404   3.413908 H        1 UNL1     0.0524
     122 H         5.313548   3.54846   2.936771 H        1 UNL1     0.0524
     123 H         4.769844   2.999416   4.541975 H        1 UNL1     0.0524
@<TRIPOS>BOND
     1     1     2    1
     2     1    42    1
     3     2     3    2
     4     3     4    1
     5     4     5    2
     6     5     7    1
     7     6    75    1
     8     6    76    1
     9     6    77    1
    10     7     9   am
    11     9    10    1
    12    10    11    2
    13    10    43    1
    14    11    14    1
    15    11    15    1
    16    12    13   ar
    17    12    27   ar
    18    12    43    1
    19    13    14    1
    20    13    30   ar
    21    14    17    2
    22    15    16    1
    23    16    17    1
    24    16    18    1
    25    16    22    1
    26    18    19    1
    27    19    20    1
    28    20    21    1
    29    21    22    1
    30    23    24    1
    31    23    88    1
    32    23    89    1
    33    24    25    1
    34    24    26    1
    35    24    90    1
    36    25    91    1
    37    25    92    1
    38    25    93    1
    39    26    94    1
    40    26    95    1
    41    26    96    1
    42    27    28   ar
    43    28    29   ar
    44    29    30   ar
    45    29    31    1
    46    30    33    1
    47    31    32    1
    48    32    33    1
    49    32    35    1
    50    34    97    1
    51    34    98    1
    52    34    99    1
    53    35    61    1
    54    36    37    1
    55    36    60    1
    56    37    38    1
    57    38    39    1
    58    39    40    1
    59    40    41    1
    60    41    42    1
    61    45   100    1
    62    47   101    1
    63    47   102    1
    64    47   103    1
    65    48   104    1
    66    49   105    1
    67    49   106    1
    68    49   107    1
    69    50   108    1
    70    51    59    1
    71    52   109    1
    72    52   110    1
    73    52   111    1
    74    53    54    1
    75    54    55    2
    76    54    56    1
    77    56   112    1
    78    56   113    1
    79    56   114    1
    80    57   115    1
    81    57   116    1
    82    57   117    1
    83    58   118    1
    84    58   119    1
    85    58   120    1
    86    59   121    1
    87    59   122    1
    88    59   123    1
    89    60    61    2
    90     1    47    1
    91     1    62    1
    92     2    63    1
    93     3    64    1
    94     4    65    1
    95     5     6    1
    96     7     8    2
    97     9    78    1
    98    15    79    1
    99    18    80    1
   100    18    81    1
   101    19    82    1
   102    19    83    1
   103    20    23    1
   104    21    84    1
   105    21    85    1
   106    22    86    1
   107    22    87    1
   108    27    45    1
   109    28    34    1
   110    32    58    1
   111    33    46    2
   112    36    51    1
   113    36    66    1
   114    37    52    1
   115    37    67    1
   116    38    53    1
   117    38    68    1
   118    42    48    1
   119    42    72    1
   120    43    44    2
   121    60    73    1
   122    61    74    1
   123    39    69    1
   124    39    57    1
   125    40    70    1
   126    40    50    1
   127    41    71    1
   128    41    49    1
