@<TRIPOS>MOLECULE
*****
 123 128 0 0 0
SMALL
GASTEIGER

@<TRIPOS>ATOM
     1 C         1.766464   -0.849594   -5.071107 C.3        1 UNL1     0.0009
     2 C         3.058332   -1.70803   -6.086589 C.2        1 UNL1     -0.0787
     3 C         4.243308   -1.655405   -6.916714 C.2        1 UNL1     -0.0649
     4 C         5.136144   -2.952192   -7.539243 C.2        1 UNL1     -0.0542
     5 C         6.386386   -3.350933   -8.073078 C.2        1 UNL1     0.0115
     6 C         7.750088   -2.829331   -8.60371 C.3        1 UNL1     -0.0348
     7 C         6.755747   -4.912876   -8.103023 C.2        1 UNL1     0.2441
     8 O         6.686608   -5.593677   -9.117052 O.2        1 UNL1     -0.2702
     9 N         7.411493   -5.385185   -6.952774 N.am        1 UNL1     -0.2772
     10 C         6.494971   -5.787099   -6.008436 C.2        1 UNL1     0.1049
     11 C         5.986985   -4.834346   -5.247887 C.2        1 UNL1     0.0801
     12 C         4.437871   -7.178006   -5.706688 C.ar        1 UNL1     0.0753
     13 C         3.85481   -6.036923   -5.069053 C.ar        1 UNL1     0.0305
     14 C         4.657136   -4.872039   -4.702489 C.2        1 UNL1     0.0924
     15 N         6.368139   -3.55434   -5.096779 N.pl3        1 UNL1     -0.3170
     16 C         5.594615   -2.989352   -4.023139 C.3        1 UNL1     0.1275
     17 N         4.309652   -3.780922   -4.025993 N.2        1 UNL1     -0.2557
     18 C         6.305674   -3.340914   -2.719873 C.3        1 UNL1     0.0016
     19 C         7.737618   -2.835533   -2.795484 C.3        1 UNL1     0.0026
     20 N         7.71462   -1.394885   -3.007693 N.3        1 UNL1     -0.3018
     21 C         6.998109   -0.954389   -4.206419 C.3        1 UNL1     0.0026
     22 C         5.561033   -1.469039   -4.107217 C.3        1 UNL1     0.0016
     23 C         9.006784   -0.773134   -2.797025 C.3        1 UNL1     0.0012
     24 C         8.84516   0.573433   -2.074259 C.3        1 UNL1     -0.0339
     25 C         8.371594   0.380131   -0.624284 C.3        1 UNL1     -0.0615
     26 C         10.144058   1.358007   -2.1382 C.3        1 UNL1     -0.0615
     27 C         3.693572   -8.33128   -5.943535 C.ar        1 UNL1     0.1347
     28 C         2.374047   -8.475454   -5.553513 C.ar        1 UNL1     0.0342
     29 C         1.806845   -7.321829   -4.971622 C.ar        1 UNL1     0.1435
     30 C         2.529899   -6.1471   -4.760856 C.ar        1 UNL1     0.0774
     31 O         0.565098   -7.338562   -4.439839 O.3        1 UNL1     -0.4436
     32 C         0.531545   -6.203775   -3.5612 C.3        1 UNL1     0.3143
     33 C         1.601101   -5.266236   -4.083966 C.2        1 UNL1     0.2504
     34 C         1.592063   -9.759411   -5.546176 C.3        1 UNL1     -0.0327
     35 O         -0.728413   -5.550154   -3.757504 O.2        1 UNL1     -0.4528
     36 C         -1.594919   -3.940075   -0.431109 C.3        1 UNL1     0.0854
     37 C         -0.770897   -2.894139   0.414189 C.3        1 UNL1     0.0236
     38 C         -1.561807   -1.548065   0.780646 C.3        1 UNL1     0.1131
     39 C         -2.298359   -0.735174   -0.359077 C.3        1 UNL1     0.0200
     40 C         -1.55389   -0.478137   -1.829497 C.3        1 UNL1     0.0661
     41 C         0.018763   0.11581   -2.056656 C.3        1 UNL1     0.0091
     42 C         1.245018   -0.236465   -3.374838 C.3        1 UNL1     0.0661
     43 C         5.885982   -7.125437   -6.026799 C.2        1 UNL1     0.2131
     44 O         6.574717   -8.115612   -6.193935 O.2        1 UNL1     -0.2851
     45 O         4.323603   -9.380087   -6.610246 O.3        1 UNL1     -0.5056
     46 O         1.661413   -4.061185   -3.983633 O.2        1 UNL1     -0.2836
     47 C         0.744876   -0.131404   -5.993356 C.3        1 UNL1     -0.0566
     48 O         1.575282   1.190484   -3.606911 O.3        1 UNL1     -0.3909
     49 C         0.758213   0.055729   -0.738666 C.3        1 UNL1     -0.0577
     50 O         -1.793928   -1.558681   -2.708434 O.3        1 UNL1     -0.3910
     51 O         -2.847078   -3.499116   -0.905538 O.3        1 UNL1     -0.3753
     52 C         0.741562   -2.887752   0.017484 C.3        1 UNL1     -0.0564
     53 O         -0.902587   -0.738814   1.85901 O.3        1 UNL1     -0.4608
     54 C         -1.515237   0.224204   2.61742 C.2        1 UNL1     0.3042
     55 O         -1.406851   0.400824   3.830225 O.2        1 UNL1     -0.2512
     56 C         -2.35745   1.175455   1.81585 C.3        1 UNL1     0.0332
     57 C         -3.829165   -1.198528   -0.369642 C.3        1 UNL1     -0.0567
     58 C         0.957261   -6.71793   -2.16623 C.3        1 UNL1     0.0210
     59 C         -2.969572   -3.459561   -2.326558 C.3        1 UNL1     0.0372
     60 C         -0.87185   -4.514777   -1.598178 C.2        1 UNL1     -0.0208
     61 C         -1.278115   -4.718268   -2.852086 C.2        1 UNL1     0.0882
     62 H         1.33477   -1.828003   -4.828069 H        1 UNL1     0.0365
     63 H         2.697059   -2.737793   -6.047362 H        1 UNL1     0.0576
     64 H         4.781697   -0.720435   -7.087229 H        1 UNL1     0.0615
     65 H         4.481021   -3.814856   -7.390559 H        1 UNL1     0.0622
     66 H         -1.767436   -4.778026   0.258907 H        1 UNL1     0.0645
     67 H         -0.673422   -3.368412   1.406219 H        1 UNL1     0.0362
     68 H         -2.365064   -1.970443   1.40346 H        1 UNL1     0.0741
     69 H         -2.480695   0.271225   -0.006484 H        1 UNL1     0.0359
     70 H         -2.184446   0.342674   -2.221578 H        1 UNL1     0.0600
     71 H         -0.193798   1.199929   -2.137033 H        1 UNL1     0.0348
     72 H         0.268228   -0.536422   -3.781315 H        1 UNL1     0.0602
     73 H         0.064806   -4.896456   -1.275309 H        1 UNL1     0.0628
     74 H         -2.196197   -4.310711   -3.276657 H        1 UNL1     0.1022
     75 H         7.738456   -1.715771   -8.686666 H        1 UNL1     0.0279
     76 H         8.617054   -3.008111   -7.971669 H        1 UNL1     0.0279
     77 H         7.940886   -3.12243   -9.64649 H        1 UNL1     0.0279
     78 H         7.96525   -4.635951   -6.5428 H        1 UNL1     0.1553
     79 H         7.274448   -3.208981   -5.3542 H        1 UNL1     0.1484
     80 H         5.763672   -2.884873   -1.8826 H        1 UNL1     0.0317
     81 H         6.295363   -4.422575   -2.54796 H        1 UNL1     0.0317
     82 H         8.307264   -3.343276   -3.587704 H        1 UNL1     0.0428
     83 H         8.226827   -3.098287   -1.857036 H        1 UNL1     0.0428
     84 H         6.927122   0.133739   -4.299967 H        1 UNL1     0.0428
     85 H         7.509437   -1.26851   -5.126847 H        1 UNL1     0.0428
     86 H         5.034925   -1.018887   -4.928534 H        1 UNL1     0.0317
     87 H         5.069491   -1.040248   -3.225389 H        1 UNL1     0.0317
     88 H         9.607365   -1.439574   -2.164209 H        1 UNL1     0.0429
     89 H         9.550039   -0.652069   -3.743065 H        1 UNL1     0.0429
     90 H         8.102495   1.179768   -2.606254 H        1 UNL1     0.0308
     91 H         9.175321   0.589692   0.087903 H        1 UNL1     0.0233
     92 H         7.520622   1.029601   -0.406007 H        1 UNL1     0.0233
     93 H         8.032424   -0.644359   -0.428789 H        1 UNL1     0.0233
     94 H         10.92719   0.838524   -1.57546 H        1 UNL1     0.0233
     95 H         10.476758   1.445906   -3.17625 H        1 UNL1     0.0233
     96 H         10.025288   2.361251   -1.719435 H        1 UNL1     0.0233
     97 H         1.888815   -10.421841   -6.353862 H        1 UNL1     0.0280
     98 H         1.741116   -10.329445   -4.619839 H        1 UNL1     0.0280
     99 H         0.517997   -9.538006   -5.657785 H        1 UNL1     0.0280
     100 H         5.240615   -9.24563   -6.77344 H        1 UNL1     0.2922
     101 H         1.236877   0.180396   -6.914427 H        1 UNL1     0.0236
     102 H         0.232458   0.695717   -5.50317 H        1 UNL1     0.0236
     103 H         -0.062483   -0.806873   -6.322151 H        1 UNL1     0.0236
     104 H         1.767244   1.297726   -4.559078 H        1 UNL1     0.2098
     105 H         1.399971   -0.814087   -0.623003 H        1 UNL1     0.0234
     106 H         1.302575   0.963888   -0.480125 H        1 UNL1     0.0234
     107 H         0.0   0.0   0.0 H        1 UNL1     0.0234
     108 H         -1.951876   -2.350248   -2.158669 H        1 UNL1     0.2098
     109 H         1.398431   -2.732527   0.884745 H        1 UNL1     0.0234
     110 H         1.049773   -3.791936   -0.518427 H        1 UNL1     0.0234
     111 H         0.973411   -2.072435   -0.680692 H        1 UNL1     0.0234
     112 H         -2.456936   0.810027   0.789249 H        1 UNL1     0.0342
     113 H         -3.334175   1.33905   2.268716 H        1 UNL1     0.0342
     114 H         -1.840738   2.144411   1.77983 H        1 UNL1     0.0342
     115 H         -4.238338   -1.279641   0.646816 H        1 UNL1     0.0234
     116 H         -4.48866   -0.539194   -0.937439 H        1 UNL1     0.0234
     117 H         -3.974742   -2.227635   -0.740706 H        1 UNL1     0.0234
     118 H         2.054881   -6.736238   -2.048328 H        1 UNL1     0.0309
     119 H         0.518293   -6.143552   -1.344281 H        1 UNL1     0.0309
     120 H         0.667549   -7.760638   -1.996134 H        1 UNL1     0.0309
     121 H         -2.726345   -4.451572   -2.706179 H        1 UNL1     0.0524
     122 H         -3.996283   -3.222292   -2.651529 H        1 UNL1     0.0524
     123 H         -2.288895   -2.721926   -2.742088 H        1 UNL1     0.0524
@<TRIPOS>BOND
     1     1     2    1
     2     1    42    1
     3     2     3    2
     4     3     4    1
     5     4     5    2
     6     5     7    1
     7     6    75    1
     8     6    76    1
     9     6    77    1
    10     7     9   am
    11     9    10    1
    12    10    11    2
    13    10    43    1
    14    11    14    1
    15    11    15    1
    16    12    13   ar
    17    12    27   ar
    18    12    43    1
    19    13    14    1
    20    13    30   ar
    21    14    17    2
    22    15    16    1
    23    16    17    1
    24    16    18    1
    25    16    22    1
    26    18    19    1
    27    19    20    1
    28    20    21    1
    29    21    22    1
    30    23    24    1
    31    23    88    1
    32    23    89    1
    33    24    25    1
    34    24    26    1
    35    24    90    1
    36    25    91    1
    37    25    92    1
    38    25    93    1
    39    26    94    1
    40    26    95    1
    41    26    96    1
    42    27    28   ar
    43    28    29   ar
    44    29    30   ar
    45    29    31    1
    46    30    33    1
    47    31    32    1
    48    32    33    1
    49    32    35    1
    50    34    97    1
    51    34    98    1
    52    34    99    1
    53    35    61    1
    54    36    37    1
    55    36    60    1
    56    37    38    1
    57    38    39    1
    58    39    40    1
    59    40    41    1
    60    41    42    1
    61    45   100    1
    62    47   101    1
    63    47   102    1
    64    47   103    1
    65    48   104    1
    66    49   105    1
    67    49   106    1
    68    49   107    1
    69    50   108    1
    70    51    59    1
    71    52   109    1
    72    52   110    1
    73    52   111    1
    74    53    54    1
    75    54    55    2
    76    54    56    1
    77    56   112    1
    78    56   113    1
    79    56   114    1
    80    57   115    1
    81    57   116    1
    82    57   117    1
    83    58   118    1
    84    58   119    1
    85    58   120    1
    86    59   121    1
    87    59   122    1
    88    59   123    1
    89    60    61    2
    90     1    47    1
    91     1    62    1
    92     2    63    1
    93     3    64    1
    94     4    65    1
    95     5     6    1
    96     7     8    2
    97     9    78    1
    98    15    79    1
    99    18    80    1
   100    18    81    1
   101    19    82    1
   102    19    83    1
   103    20    23    1
   104    21    84    1
   105    21    85    1
   106    22    86    1
   107    22    87    1
   108    27    45    1
   109    28    34    1
   110    32    58    1
   111    33    46    2
   112    36    51    1
   113    36    66    1
   114    37    52    1
   115    37    67    1
   116    38    53    1
   117    38    68    1
   118    42    48    1
   119    42    72    1
   120    43    44    2
   121    60    73    1
   122    61    74    1
   123    39    69    1
   124    39    57    1
   125    40    70    1
   126    40    50    1
   127    41    71    1
   128    41    49    1
