@<TRIPOS>MOLECULE
*****
 123 128 0 0 0
SMALL
GASTEIGER

@<TRIPOS>ATOM
     1 C         5.164247   1.765113   0.462818 C.3        1 UNL1     0.0009
     2 C         6.593746   2.575547   -0.395533 C.2        1 UNL1     -0.0787
     3 C         7.872285   2.481244   -1.068208 C.2        1 UNL1     -0.0649
     4 C         8.741723   3.718956   -1.828802 C.2        1 UNL1     -0.0542
     5 C         9.755702   4.014602   -2.773005 C.2        1 UNL1     0.0115
     6 C         10.881131   3.392518   -3.644638 C.3        1 UNL1     -0.0348
     7 C         9.843079   5.49802   -3.380313 C.2        1 UNL1     0.2441
     8 O         10.66642   6.322332   -3.007292 O.2        1 UNL1     -0.2702
     9 N         9.08585   5.70238   -4.54693 N.am        1 UNL1     -0.2772
     10 C         7.803653   6.085099   -4.226274 C.2        1 UNL1     0.1049
     11 C         6.962525   5.111097   -3.929549 C.2        1 UNL1     0.0801
     12 C         6.507918   7.687968   -2.808806 C.ar        1 UNL1     0.0753
     13 C         5.754854   6.55777   -2.356969 C.ar        1 UNL1     0.0305
     14 C         5.872372   5.252305   -3.002724 C.2        1 UNL1     0.0924
     15 N         7.088451   3.782477   -4.08904 N.pl3        1 UNL1     -0.3170
     16 C         5.822208   3.17939   -3.767839 C.3        1 UNL1     0.1275
     17 N         5.188154   4.132832   -2.784656 N.2        1 UNL1     -0.2557
     18 C         4.962314   3.235511   -5.02686 C.3        1 UNL1     0.0016
     19 C         5.713186   2.55355   -6.159427 C.3        1 UNL1     0.0026
     20 N         5.989751   1.176386   -5.774772 N.3        1 UNL1     -0.3018
     21 C         6.760342   1.018656   -4.539588 C.3        1 UNL1     0.0026
     22 C         5.985544   1.706968   -3.414506 C.3        1 UNL1     0.0016
     23 C         6.430783   0.35801   -6.886705 C.3        1 UNL1     0.0012
     24 C         5.270799   0.104697   -7.862423 C.3        1 UNL1     -0.0339
     25 C         5.35635   1.027327   -9.089407 C.3        1 UNL1     -0.0615
     26 C         5.239271   -1.359425   -8.26508 C.3        1 UNL1     -0.0615
     27 C         6.302218   8.955129   -2.268336 C.ar        1 UNL1     0.1347
     28 C         5.347558   9.221872   -1.303182 C.ar        1 UNL1     0.0342
     29 C         4.652079   8.085324   -0.83871 C.ar        1 UNL1     0.1435
     30 C         4.872793   6.803883   -1.345084 C.ar        1 UNL1     0.0774
     31 O         3.615399   8.195807   0.020413 O.3        1 UNL1     -0.4436
     32 C         2.896833   6.960697   -0.117567 C.3        1 UNL1     0.3143
     33 C         3.910331   5.970661   -0.655029 C.2        1 UNL1     0.2504
     34 C         4.898837   10.586662   -0.860353 C.3        1 UNL1     -0.0327
     35 O         2.544745   6.523155   1.200705 O.2        1 UNL1     -0.4528
     36 C         -0.69433   4.580709   0.82204 C.3        1 UNL1     0.0854
     37 C         -1.00056   3.318975   -0.073377 C.3        1 UNL1     0.0236
     38 C         -1.59285   2.056226   0.718079 C.3        1 UNL1     0.1131
     39 C         -0.858347   1.527862   2.015617 C.3        1 UNL1     0.0200
     40 C         0.803494   1.387541   2.047759 C.3        1 UNL1     0.0661
     41 C         1.758889   0.621467   0.873893 C.3        1 UNL1     0.0091
     42 C         3.462229   0.989256   0.300514 C.3        1 UNL1     0.0661
     43 C         7.452484   7.482998   -3.93488 C.2        1 UNL1     0.2131
     44 O         7.845622   8.382166   -4.655766 O.2        1 UNL1     -0.2851
     45 O         7.108719   9.992678   -2.731462 O.3        1 UNL1     -0.5056
     46 O         3.930812   4.767213   -0.52409 O.2        1 UNL1     -0.2836
     47 C         5.569791   1.337207   1.898928 C.3        1 UNL1     -0.0566
     48 O         3.91566   -0.420415   0.380148 O.3        1 UNL1     -0.3909
     49 C         0.918687   0.385978   -0.361461 C.3        1 UNL1     -0.0577
     50 O         1.401999   2.607371   2.43703 O.3        1 UNL1     -0.3910
     51 O         -0.810233   4.390963   2.214158 O.3        1 UNL1     -0.3753
     52 C         0.038093   3.161519   -1.231547 C.3        1 UNL1     -0.0564
     53 O         -2.197087   1.015151   -0.17824 O.3        1 UNL1     -0.4608
     54 C         -2.394369   -0.300296   0.15132 C.2        1 UNL1     0.3042
     55 O         -1.74778   -1.272523   -0.236667 O.2        1 UNL1     -0.2512
     56 C         -3.502424   -0.512096   1.143323 C.3        1 UNL1     0.0332
     57 C         -1.574581   2.194879   3.280635 C.3        1 UNL1     -0.0567
     58 C         1.814976   7.202163   -1.195904 C.3        1 UNL1     0.0210
     59 C         -1.123088   5.569151   2.955685 C.3        1 UNL1     0.0372
     60 C         0.631407   5.213906   0.584042 C.2        1 UNL1     -0.0208
     61 C         1.547702   5.652202   1.44836 C.2        1 UNL1     0.0882
     62 H         4.685724   2.747808   0.55247 H        1 UNL1     0.0365
     63 H         6.324772   3.628531   -0.289003 H        1 UNL1     0.0576
     64 H         8.331757   1.515783   -1.291542 H        1 UNL1     0.0615
     65 H         8.253671   4.632901   -1.479528 H        1 UNL1     0.0622
     66 H         -1.443001   5.324826   0.515724 H        1 UNL1     0.0645
     67 H         -1.870398   3.625482   -0.680004 H        1 UNL1     0.0362
     68 H         -2.539352   2.490212   1.074886 H        1 UNL1     0.0741
     69 H         -1.185624   0.515775   2.213045 H        1 UNL1     0.0359
     70 H         0.922149   0.727771   2.928489 H        1 UNL1     0.0600
     71 H         1.808004   -0.399457   1.300813 H        1 UNL1     0.0348
     72 H         3.360166   1.477357   1.280645 H        1 UNL1     0.0602
     73 H         0.743023   5.41128   -0.453182 H        1 UNL1     0.0628
     74 H         1.536658   5.441736   2.518323 H        1 UNL1     0.1022
     75 H         10.878402   2.279617   -3.552565 H        1 UNL1     0.0279
     76 H         10.799344   3.538867   -4.71933 H        1 UNL1     0.0279
     77 H         11.88835   3.637979   -3.277268 H        1 UNL1     0.0279
     78 H         9.023714   4.832117   -5.071199 H        1 UNL1     0.1553
     79 H         7.751679   3.356427   -4.709962 H        1 UNL1     0.1484
     80 H         4.003651   2.741612   -4.827369 H        1 UNL1     0.0317
     81 H         4.730979   4.271484   -5.296849 H        1 UNL1     0.0317
     82 H         6.64081   3.087708   -6.41261 H        1 UNL1     0.0428
     83 H         5.083003   2.606521   -7.047748 H        1 UNL1     0.0428
     84 H         6.885619   -0.02384   -4.23085 H        1 UNL1     0.0428
     85 H         7.788693   1.389891   -4.649113 H        1 UNL1     0.0428
     86 H         6.507702   1.458442   -2.509203 H        1 UNL1     0.0317
     87 H         5.0083   1.226294   -3.283963 H        1 UNL1     0.0317
     88 H         7.222252   0.902173   -7.418455 H        1 UNL1     0.0429
     89 H         6.868253   -0.586318   -6.537936 H        1 UNL1     0.0429
     90 H         4.321093   0.294482   -7.348368 H        1 UNL1     0.0308
     91 H         6.309224   0.905335   -9.613098 H        1 UNL1     0.0233
     92 H         4.537226   0.8243   -9.783255 H        1 UNL1     0.0233
     93 H         5.274217   2.087589   -8.821201 H        1 UNL1     0.0233
     94 H         4.580069   -1.499558   -9.128591 H        1 UNL1     0.0233
     95 H         6.242077   -1.690455   -8.549267 H        1 UNL1     0.0233
     96 H         4.877576   -1.990231   -7.448239 H        1 UNL1     0.0233
     97 H         4.054835   10.536876   -0.178876 H        1 UNL1     0.0280
     98 H         5.688223   11.1274   -0.322089 H        1 UNL1     0.0280
     99 H         4.598489   11.179729   -1.739647 H        1 UNL1     0.0280
     100 H         6.641164   10.769855   -2.982481 H        1 UNL1     0.2922
     101 H         4.687947   1.00526   2.446484 H        1 UNL1     0.0236
     102 H         6.11891   2.109035   2.437197 H        1 UNL1     0.0236
     103 H         6.242823   0.463586   1.896234 H        1 UNL1     0.0236
     104 H         4.252509   -0.571234   1.285 H        1 UNL1     0.2098
     105 H         0.700092   1.283998   -0.933814 H        1 UNL1     0.0234
     106 H         1.286957   -0.401041   -1.019416 H        1 UNL1     0.0234
     107 H         0.0   -0.0   0.0 H        1 UNL1     0.0234
     108 H         1.251483   3.247714   1.715175 H        1 UNL1     0.2098
     109 H         1.066748   3.063748   -0.857354 H        1 UNL1     0.0234
     110 H         -0.188733   2.325938   -1.902439 H        1 UNL1     0.0234
     111 H         0.044136   4.038977   -1.891833 H        1 UNL1     0.0234
     112 H         -3.593121   -1.57696   1.378234 H        1 UNL1     0.0342
     113 H         -3.360171   0.076878   2.048153 H        1 UNL1     0.0342
     114 H         -4.444425   -0.188036   0.679875 H        1 UNL1     0.0342
     115 H         -2.661757   2.03681   3.264803 H        1 UNL1     0.0234
     116 H         -1.204217   1.833659   4.242092 H        1 UNL1     0.0234
     117 H         -1.519569   3.297094   3.286813 H        1 UNL1     0.0234
     118 H         0.912798   7.682104   -0.777889 H        1 UNL1     0.0309
     119 H         2.176581   7.794984   -2.042076 H        1 UNL1     0.0309
     120 H         1.430317   6.26901   -1.621778 H        1 UNL1     0.0309
     121 H         -0.789692   5.411605   3.981055 H        1 UNL1     0.0524
     122 H         -0.598314   6.458574   2.568934 H        1 UNL1     0.0524
     123 H         -2.193352   5.753937   2.933737 H        1 UNL1     0.0524
@<TRIPOS>BOND
     1     1     2    1
     2     1    42    1
     3     2     3    2
     4     3     4    1
     5     4     5    2
     6     5     7    1
     7     6    75    1
     8     6    76    1
     9     6    77    1
    10     7     9   am
    11     9    10    1
    12    10    11    2
    13    10    43    1
    14    11    14    1
    15    11    15    1
    16    12    13   ar
    17    12    27   ar
    18    12    43    1
    19    13    14    1
    20    13    30   ar
    21    14    17    2
    22    15    16    1
    23    16    17    1
    24    16    18    1
    25    16    22    1
    26    18    19    1
    27    19    20    1
    28    20    21    1
    29    21    22    1
    30    23    24    1
    31    23    88    1
    32    23    89    1
    33    24    25    1
    34    24    26    1
    35    24    90    1
    36    25    91    1
    37    25    92    1
    38    25    93    1
    39    26    94    1
    40    26    95    1
    41    26    96    1
    42    27    28   ar
    43    28    29   ar
    44    29    30   ar
    45    29    31    1
    46    30    33    1
    47    31    32    1
    48    32    33    1
    49    32    35    1
    50    34    97    1
    51    34    98    1
    52    34    99    1
    53    35    61    1
    54    36    37    1
    55    36    60    1
    56    37    38    1
    57    38    39    1
    58    39    40    1
    59    40    41    1
    60    41    42    1
    61    45   100    1
    62    47   101    1
    63    47   102    1
    64    47   103    1
    65    48   104    1
    66    49   105    1
    67    49   106    1
    68    49   107    1
    69    50   108    1
    70    51    59    1
    71    52   109    1
    72    52   110    1
    73    52   111    1
    74    53    54    1
    75    54    55    2
    76    54    56    1
    77    56   112    1
    78    56   113    1
    79    56   114    1
    80    57   115    1
    81    57   116    1
    82    57   117    1
    83    58   118    1
    84    58   119    1
    85    58   120    1
    86    59   121    1
    87    59   122    1
    88    59   123    1
    89    60    61    2
    90     1    47    1
    91     1    62    1
    92     2    63    1
    93     3    64    1
    94     4    65    1
    95     5     6    1
    96     7     8    2
    97     9    78    1
    98    15    79    1
    99    18    80    1
   100    18    81    1
   101    19    82    1
   102    19    83    1
   103    20    23    1
   104    21    84    1
   105    21    85    1
   106    22    86    1
   107    22    87    1
   108    27    45    1
   109    28    34    1
   110    32    58    1
   111    33    46    2
   112    36    51    1
   113    36    66    1
   114    37    52    1
   115    37    67    1
   116    38    53    1
   117    38    68    1
   118    42    48    1
   119    42    72    1
   120    43    44    2
   121    60    73    1
   122    61    74    1
   123    39    69    1
   124    39    57    1
   125    40    70    1
   126    40    50    1
   127    41    71    1
   128    41    49    1
