@<TRIPOS>MOLECULE
*****
 123 128 0 0 0
SMALL
GASTEIGER

@<TRIPOS>ATOM
     1 C         1.32661   4.290462   -1.770196 C.3        1 UNL1     0.0009
     2 C         1.160822   5.096895   -3.431285 C.2        1 UNL1     -0.0787
     3 C         1.764912   5.643165   -4.628244 C.2        1 UNL1     -0.0649
     4 C         0.987079   6.203223   -6.023832 C.2        1 UNL1     -0.0542
     5 C         1.143039   6.499156   -7.400487 C.2        1 UNL1     0.0115
     6 C         2.185824   6.663527   -8.540182 C.3        1 UNL1     -0.0348
     7 C         -0.166006   6.626123   -8.320959 C.2        1 UNL1     0.2441
     8 O         -0.632154   7.701907   -8.67013 O.2        1 UNL1     -0.2702
     9 N         -0.588186   5.423355   -8.913635 N.am        1 UNL1     -0.2772
     10 C         -1.443749   4.748438   -8.073503 C.2        1 UNL1     0.1049
     11 C         -0.877218   4.01116   -7.135587 C.2        1 UNL1     0.0801
     12 C         -3.482737   5.052775   -6.656732 C.ar        1 UNL1     0.0753
     13 C         -2.745664   4.429483   -5.599926 C.ar        1 UNL1     0.0305
     14 C         -1.464903   3.770436   -5.845604 C.2        1 UNL1     0.0924
     15 N         0.405509   3.63815   -6.987263 N.pl3        1 UNL1     -0.3170
     16 C         0.466738   2.697731   -5.900011 C.3        1 UNL1     0.1275
     17 N         -0.700711   3.064747   -5.016786 N.2        1 UNL1     -0.2557
     18 C         0.14681   1.320996   -6.474422 C.3        1 UNL1     0.0016
     19 C         1.114769   1.031106   -7.610471 C.3        1 UNL1     0.0026
     20 N         2.474255   1.078813   -7.090327 N.3        1 UNL1     -0.3018
     21 C         2.855243   2.345207   -6.461469 C.3        1 UNL1     0.0026
     22 C         1.872675   2.614353   -5.32041 C.3        1 UNL1     0.0016
     23 C         3.449587   0.527841   -8.010002 C.3        1 UNL1     0.0012
     24 C         3.254514   -0.989452   -8.15671 C.3        1 UNL1     -0.0339
     25 C         2.100875   -1.495936   -7.275435 C.3        1 UNL1     -0.0615
     26 C         3.041528   -1.348342   -9.617058 C.3        1 UNL1     -0.0615
     27 C         -4.756711   5.57224   -6.439324 C.ar        1 UNL1     0.1347
     28 C         -5.410687   5.49213   -5.222793 C.ar        1 UNL1     0.0342
     29 C         -4.64646   4.918117   -4.184704 C.ar        1 UNL1     0.1435
     30 C         -3.355177   4.42607   -4.378862 C.ar        1 UNL1     0.0774
     31 O         -5.182297   4.669402   -2.969785 O.3        1 UNL1     -0.4436
     32 C         -4.307756   3.695533   -2.380184 C.3        1 UNL1     0.3143
     33 C         -2.983095   3.868042   -3.095536 C.2        1 UNL1     0.2504
     34 C         -6.862631   5.797511   -4.980507 C.3        1 UNL1     -0.0327
     35 O         -4.098593   4.081281   -1.016108 O.2        1 UNL1     -0.4528
     36 C         -3.516829   0.85653   0.899778 C.3        1 UNL1     0.0854
     37 C         -2.425824   -0.258207   0.666131 C.3        1 UNL1     0.0236
     38 C         -1.521015   -0.597161   1.946043 C.3        1 UNL1     0.1131
     39 C         -0.814219   0.574102   2.740305 C.3        1 UNL1     0.0200
     40 C         -0.054797   1.812656   1.920733 C.3        1 UNL1     0.0661
     41 C         1.070485   1.629716   0.664595 C.3        1 UNL1     0.0091
     42 C         1.40441   2.686575   -0.797234 C.3        1 UNL1     0.0661
     43 C         -2.882181   5.047941   -8.013776 C.2        1 UNL1     0.2131
     44 O         -3.530021   5.175032   -9.036951 O.2        1 UNL1     -0.2851
     45 O         -5.387365   6.203259   -7.509618 O.3        1 UNL1     -0.5056
     46 O         -1.869575   3.621357   -2.689244 O.2        1 UNL1     -0.2836
     47 C         1.809189   5.322347   -0.715533 C.3        1 UNL1     -0.0566
     48 O         2.875304   2.679609   -0.608716 O.3        1 UNL1     -0.3909
     49 C         1.026346   0.199623   0.17431 C.3        1 UNL1     -0.0577
     50 O         -0.972517   2.839144   1.601615 O.3        1 UNL1     -0.3910
     51 O         -3.450314   1.534557   2.133993 O.3        1 UNL1     -0.3753
     52 C         -1.83193   -0.197245   -0.779041 C.3        1 UNL1     -0.0564
     53 O         -0.747032   -1.876025   1.81269 O.3        1 UNL1     -0.4608
     54 C         -0.681302   -2.867715   2.756174 C.2        1 UNL1     0.3042
     55 O         -1.21345   -2.879688   3.865459 O.2        1 UNL1     -0.2512
     56 C         0.09508   -4.073304   2.308402 C.3        1 UNL1     0.0332
     57 C         -1.761376   0.963978   3.968745 C.3        1 UNL1     -0.0567
     58 C         -4.89164   2.309209   -2.738952 C.3        1 UNL1     0.0210
     59 C         -2.128641   1.793024   2.605418 C.3        1 UNL1     0.0372
     60 C         -3.587145   1.899488   -0.159682 C.2        1 UNL1     -0.0208
     61 C         -3.684209   3.226036   -0.061735 C.2        1 UNL1     0.0882
     62 H         0.232781   4.257681   -1.698256 H        1 UNL1     0.0365
     63 H         0.080871   5.252639   -3.47511 H        1 UNL1     0.0576
     64 H         2.8418   5.587691   -4.802432 H        1 UNL1     0.0615
     65 H         -0.058931   6.296641   -5.719497 H        1 UNL1     0.0622
     66 H         -4.474443   0.318747   0.857225 H        1 UNL1     0.0645
     67 H         -3.011201   -1.187919   0.55875 H        1 UNL1     0.0362
     68 H         -2.298105   -0.981989   2.623952 H        1 UNL1     0.0741
     69 H         -0.012688   0.156996   3.335267 H        1 UNL1     0.0359
     70 H         0.558849   2.234923   2.739384 H        1 UNL1     0.0600
     71 H         2.012484   1.630386   1.247342 H        1 UNL1     0.0348
     72 H         0.869104   3.323705   -0.078327 H        1 UNL1     0.0602
     73 H         -3.678845   1.429238   -1.107155 H        1 UNL1     0.0628
     74 H         -3.543733   3.788068   0.862183 H        1 UNL1     0.1022
     75 H         3.209321   6.406105   -8.175188 H        1 UNL1     0.0279
     76 H         2.07195   6.007503   -9.40026 H        1 UNL1     0.0279
     77 H         2.321461   7.711691   -8.844576 H        1 UNL1     0.0279
     78 H         0.216608   4.822372   -9.078568 H        1 UNL1     0.1553
     79 H         1.079946   3.655129   -7.730082 H        1 UNL1     0.1484
     80 H         0.229664   0.572781   -5.676878 H        1 UNL1     0.0317
     81 H         -0.885613   1.278861   -6.837711 H        1 UNL1     0.0317
     82 H         0.985428   1.735551   -8.445301 H        1 UNL1     0.0428
     83 H         0.867767   0.045716   -8.006762 H        1 UNL1     0.0428
     84 H         3.851601   2.327947   -6.008939 H        1 UNL1     0.0428
     85 H         2.908001   3.164595   -7.191631 H        1 UNL1     0.0428
     86 H         2.258519   3.472757   -4.802476 H        1 UNL1     0.0317
     87 H         1.939461   1.815208   -4.572077 H        1 UNL1     0.0317
     88 H         3.296711   0.996337   -8.99104 H        1 UNL1     0.0429
     89 H         4.473681   0.766846   -7.695544 H        1 UNL1     0.0429
     90 H         4.17583   -1.500989   -7.853857 H        1 UNL1     0.0308
     91 H         1.453361   -2.185402   -7.825404 H        1 UNL1     0.0233
     92 H         2.486616   -1.998897   -6.385579 H        1 UNL1     0.0233
     93 H         1.462842   -0.68063   -6.913462 H        1 UNL1     0.0233
     94 H         2.105755   -0.910495   -9.981002 H        1 UNL1     0.0233
     95 H         3.859105   -0.948224   -10.223223 H        1 UNL1     0.0233
     96 H         2.994333   -2.431672   -9.758959 H        1 UNL1     0.0233
     97 H         -7.040108   6.15958   -3.972222 H        1 UNL1     0.0280
     98 H         -7.238338   6.580906   -5.65162 H        1 UNL1     0.0280
     99 H         -7.461776   4.884443   -5.130259 H        1 UNL1     0.0280
     100 H         -5.232101   7.129811   -7.564533 H        1 UNL1     0.2922
     101 H         2.433335   6.07518   -1.196511 H        1 UNL1     0.0236
     102 H         2.307069   4.86252   0.137496 H        1 UNL1     0.0236
     103 H         0.971221   5.890949   -0.278846 H        1 UNL1     0.0236
     104 H         3.051631   2.462765   0.327691 H        1 UNL1     0.2098
     105 H         1.561539   0.027104   -0.756076 H        1 UNL1     0.0234
     106 H         1.310463   -0.545464   0.917311 H        1 UNL1     0.0234
     107 H         0.0   -0.0   0.0 H        1 UNL1     0.0234
     108 H         -0.714455   3.198657   0.731028 H        1 UNL1     0.2098
     109 H         -0.805443   0.195056   -0.79073 H        1 UNL1     0.0234
     110 H         -1.86156   -1.161605   -1.297573 H        1 UNL1     0.0234
     111 H         -2.413186   0.471688   -1.42759 H        1 UNL1     0.0234
     112 H         -0.380047   -4.515886   1.427652 H        1 UNL1     0.0342
     113 H         1.13992   -3.837728   2.111787 H        1 UNL1     0.0342
     114 H         0.067993   -4.818102   3.115686 H        1 UNL1     0.0342
     115 H         -2.191457   0.075314   4.450922 H        1 UNL1     0.0234
     116 H         -1.264088   1.550025   4.744182 H        1 UNL1     0.0234
     117 H         -2.674365   1.504965   3.66588 H        1 UNL1     0.0234
     118 H         -5.99528   2.303553   -2.70806 H        1 UNL1     0.0309
     119 H         -4.55879   1.942384   -3.715093 H        1 UNL1     0.0309
     120 H         -4.614721   1.536045   -2.013942 H        1 UNL1     0.0309
     121 H         -1.867367   1.000002   3.305567 H        1 UNL1     0.0524
     122 H         -1.383809   1.776759   1.792399 H        1 UNL1     0.0524
     123 H         -2.088551   2.758859   3.101048 H        1 UNL1     0.0524
@<TRIPOS>BOND
     1     1     2    1
     2     1    42    1
     3     2     3    2
     4     3     4    1
     5     4     5    2
     6     5     7    1
     7     6    75    1
     8     6    76    1
     9     6    77    1
    10     7     9   am
    11     9    10    1
    12    10    11    2
    13    10    43    1
    14    11    14    1
    15    11    15    1
    16    12    13   ar
    17    12    27   ar
    18    12    43    1
    19    13    14    1
    20    13    30   ar
    21    14    17    2
    22    15    16    1
    23    16    17    1
    24    16    18    1
    25    16    22    1
    26    18    19    1
    27    19    20    1
    28    20    21    1
    29    21    22    1
    30    23    24    1
    31    23    88    1
    32    23    89    1
    33    24    25    1
    34    24    26    1
    35    24    90    1
    36    25    91    1
    37    25    92    1
    38    25    93    1
    39    26    94    1
    40    26    95    1
    41    26    96    1
    42    27    28   ar
    43    28    29   ar
    44    29    30   ar
    45    29    31    1
    46    30    33    1
    47    31    32    1
    48    32    33    1
    49    32    35    1
    50    34    97    1
    51    34    98    1
    52    34    99    1
    53    35    61    1
    54    36    37    1
    55    36    60    1
    56    37    38    1
    57    38    39    1
    58    39    40    1
    59    40    41    1
    60    41    42    1
    61    45   100    1
    62    47   101    1
    63    47   102    1
    64    47   103    1
    65    48   104    1
    66    49   105    1
    67    49   106    1
    68    49   107    1
    69    50   108    1
    70    51    59    1
    71    52   109    1
    72    52   110    1
    73    52   111    1
    74    53    54    1
    75    54    55    2
    76    54    56    1
    77    56   112    1
    78    56   113    1
    79    56   114    1
    80    57   115    1
    81    57   116    1
    82    57   117    1
    83    58   118    1
    84    58   119    1
    85    58   120    1
    86    59   121    1
    87    59   122    1
    88    59   123    1
    89    60    61    2
    90     1    47    1
    91     1    62    1
    92     2    63    1
    93     3    64    1
    94     4    65    1
    95     5     6    1
    96     7     8    2
    97     9    78    1
    98    15    79    1
    99    18    80    1
   100    18    81    1
   101    19    82    1
   102    19    83    1
   103    20    23    1
   104    21    84    1
   105    21    85    1
   106    22    86    1
   107    22    87    1
   108    27    45    1
   109    28    34    1
   110    32    58    1
   111    33    46    2
   112    36    51    1
   113    36    66    1
   114    37    52    1
   115    37    67    1
   116    38    53    1
   117    38    68    1
   118    42    48    1
   119    42    72    1
   120    43    44    2
   121    60    73    1
   122    61    74    1
   123    39    69    1
   124    39    57    1
   125    40    70    1
   126    40    50    1
   127    41    71    1
   128    41    49    1
