@<TRIPOS>MOLECULE
*****
 123 128 0 0 0
SMALL
GASTEIGER

@<TRIPOS>ATOM
     1 C         4.94897   2.200217   0.823708 C.3        1 UNL1     0.0009
     2 C         6.328105   3.194643   0.084695 C.2        1 UNL1     -0.0787
     3 C         7.641026   3.265079   -0.521377 C.2        1 UNL1     -0.0649
     4 C         8.415078   4.622741   -1.172496 C.2        1 UNL1     -0.0542
     5 C         9.438449   5.068793   -2.044751 C.2        1 UNL1     0.0115
     6 C         10.663197   4.610287   -2.883255 C.3        1 UNL1     -0.0348
     7 C         9.402774   6.5841   -2.573484 C.2        1 UNL1     0.2441
     8 O         10.117847   7.465283   -2.116632 O.2        1 UNL1     -0.2702
     9 N         8.686724   6.774344   -3.768152 N.am        1 UNL1     -0.2772
     10 C         7.357833   7.009076   -3.49932 C.2        1 UNL1     0.1049
     11 C         6.607594   5.941269   -3.296461 C.2        1 UNL1     0.0801
     12 C         5.836421   8.395545   -2.077933 C.ar        1 UNL1     0.0753
     13 C         5.182099   7.172993   -1.723198 C.ar        1 UNL1     0.0305
     14 C         5.46455   5.922562   -2.424407 C.2        1 UNL1     0.0924
     15 N         6.876918   4.642446   -3.513372 N.pl3        1 UNL1     -0.3170
     16 C         5.66505   3.899323   -3.291121 C.3        1 UNL1     0.1275
     17 N         4.888997   4.730158   -2.298559 N.2        1 UNL1     -0.2557
     18 C         4.866751   3.937005   -4.590737 C.3        1 UNL1     0.0016
     19 C         5.738323   3.395631   -5.712729 C.3        1 UNL1     0.0026
     20 N         6.135593   2.034292   -5.381127 N.3        1 UNL1     -0.3018
     21 C         6.856769   1.888014   -4.115079 C.3        1 UNL1     0.0026
     22 C         5.961142   2.43371   -3.001542 C.3        1 UNL1     0.0016
     23 C         6.712329   1.325291   -6.505999 C.3        1 UNL1     0.0012
     24 C         5.633755   1.010254   -7.55442 C.3        1 UNL1     -0.0339
     25 C         6.001274   1.588894   -8.930706 C.3        1 UNL1     -0.0615
     26 C         5.396437   -0.488315   -7.623347 C.3        1 UNL1     -0.0615
     27 C         5.475456   9.604781   -1.48838 C.ar        1 UNL1     0.1347
     28 C         4.452258   9.722278   -0.564632 C.ar        1 UNL1     0.0342
     29 C         3.85518   8.498493   -0.19448 C.ar        1 UNL1     0.1435
     30 C         4.230853   7.274732   -0.749906 C.ar        1 UNL1     0.0774
     31 O         2.771738   8.458259   0.611461 O.3        1 UNL1     -0.4436
     32 C         2.1914   7.166737   0.374714 C.3        1 UNL1     0.3143
     33 C         3.326319   6.313445   -0.154497 C.2        1 UNL1     0.2504
     34 C         3.844621   11.009477   -0.080901 C.3        1 UNL1     -0.0327
     35 O         1.821833   6.625716   1.649064 O.2        1 UNL1     -0.4528
     36 C         -1.178225   4.392384   1.001016 C.3        1 UNL1     0.0854
     37 C         -1.309009   3.156495   0.029935 C.3        1 UNL1     0.0236
     38 C         -1.806656   1.800008   0.72566 C.3        1 UNL1     0.1131
     39 C         -1.086346   1.278524   2.033895 C.3        1 UNL1     0.0200
     40 C         0.577531   1.303553   2.149332 C.3        1 UNL1     0.0661
     41 C         1.662958   0.701288   0.993159 C.3        1 UNL1     0.0091
     42 C         3.345614   1.267947   0.531674 C.3        1 UNL1     0.0661
     43 C         6.851144   8.347093   -3.159713 C.2        1 UNL1     0.2131
     44 O         7.184794   9.318633   -3.813566 O.2        1 UNL1     -0.2851
     45 O         6.192933   10.741238   -1.855984 O.3        1 UNL1     -0.5056
     46 O         3.463784   5.112774   -0.081381 O.2        1 UNL1     -0.2836
     47 C         5.325345   1.738173   2.257179 C.3        1 UNL1     -0.0566
     48 O         3.936905   -0.091552   0.567085 O.3        1 UNL1     -0.3909
     49 C         0.912999   0.449942   -0.295981 C.3        1 UNL1     -0.0577
     50 O         1.027827   2.554334   2.629438 O.3        1 UNL1     -0.3910
     51 O         -1.342201   4.117189   2.3739 O.3        1 UNL1     -0.3753
     52 C         -0.204112   3.166388   -1.076434 C.3        1 UNL1     -0.0564
     53 O         -2.256119   0.753599   -0.251754 O.3        1 UNL1     -0.4608
     54 C         -2.333252   -0.590832   0.002181 C.2        1 UNL1     0.3042
     55 O         -1.545769   -1.465186   -0.357281 O.2        1 UNL1     -0.2512
     56 C         -3.500549   -0.973542   0.866858 C.3        1 UNL1     0.0332
     57 C         -1.92847   1.801371   3.289137 C.3        1 UNL1     -0.0567
     58 C         1.144688   7.356624   -0.747725 C.3        1 UNL1     0.0210
     59 C         -1.810354   5.216468   3.153826 C.3        1 UNL1     0.0372
     60 C         0.085579   5.166884   0.866443 C.2        1 UNL1     -0.0208
     61 C         0.908522   5.647346   1.799537 C.2        1 UNL1     0.0882
     62 H         4.368276   3.123864   0.934985 H        1 UNL1     0.0365
     63 H         5.947556   4.208167   0.2276 H        1 UNL1     0.0576
     64 H         8.207583   2.363861   -0.766175 H        1 UNL1     0.0615
     65 H         7.819237   5.463126   -0.806153 H        1 UNL1     0.0622
     66 H         -1.983393   5.073342   0.6911 H        1 UNL1     0.0645
     67 H         -2.174899   3.406759   -0.607373 H        1 UNL1     0.0362
     68 H         -2.80907   2.117294   1.051265 H        1 UNL1     0.0741
     69 H         -1.317288   0.229616   2.163761 H        1 UNL1     0.0359
     70 H         0.719932   0.612414   3.002039 H        1 UNL1     0.0600
     71 H         1.795612   -0.331141   1.371908 H        1 UNL1     0.0348
     72 H         3.146018   1.689816   1.527417 H        1 UNL1     0.0602
     73 H         0.227099   5.430087   -0.152353 H        1 UNL1     0.0628
     74 H         0.866659   5.379427   2.855806 H        1 UNL1     0.1022
     75 H         10.770213   3.499353   -2.845753 H        1 UNL1     0.0279
     76 H         10.619646   4.805477   -3.952401 H        1 UNL1     0.0279
     77 H         11.620652   4.935059   -2.450238 H        1 UNL1     0.0279
     78 H         8.740051   5.93178   -4.336764 H        1 UNL1     0.1553
     79 H         7.610041   4.318965   -4.117379 H        1 UNL1     0.1484
     80 H         3.955228   3.339684   -4.467861 H        1 UNL1     0.0317
     81 H         4.543816   4.957701   -4.822133 H        1 UNL1     0.0317
     82 H         6.617511   4.032744   -5.888879 H        1 UNL1     0.0428
     83 H         5.15038   3.433159   -6.630315 H        1 UNL1     0.0428
     84 H         7.073102   0.848142   -3.851112 H        1 UNL1     0.0428
     85 H         7.845706   2.365582   -4.150416 H        1 UNL1     0.0428
     86 H         6.461003   2.190175   -2.082403 H        1 UNL1     0.0317
     87 H         5.033182   1.851387   -2.947795 H        1 UNL1     0.0317
     88 H         7.468887   1.973754   -6.966879 H        1 UNL1     0.0429
     89 H         7.226786   0.41201   -6.180382 H        1 UNL1     0.0429
     90 H         4.681839   1.449818   -7.233712 H        1 UNL1     0.0308
     91 H         7.04319   1.374675   -9.186872 H        1 UNL1     0.0233
     92 H         5.349927   1.181492   -9.707481 H        1 UNL1     0.0233
     93 H         5.881211   2.678284   -8.971307 H        1 UNL1     0.0233
     94 H         4.949728   -0.756051   -8.586988 H        1 UNL1     0.0233
     95 H         6.346823   -1.021681   -7.532524 H        1 UNL1     0.0233
     96 H         4.726166   -0.823242   -6.826773 H        1 UNL1     0.0233
     97 H         2.977774   10.83886   0.550524 H        1 UNL1     0.0280
     98 H         4.546961   11.596614   0.525105 H        1 UNL1     0.0280
     99 H         3.528483   11.616098   -0.945287 H        1 UNL1     0.0280
     100 H         5.660949   11.480169   -2.093881 H        1 UNL1     0.2922
     101 H         4.456438   1.290662   2.739248 H        1 UNL1     0.0236
     102 H         5.765256   2.530879   2.861397 H        1 UNL1     0.0236
     103 H         6.083821   0.937653   2.248498 H        1 UNL1     0.0236
     104 H         4.242652   -0.256517   1.480472 H        1 UNL1     0.2098
     105 H         0.673874   1.348635   -0.858991 H        1 UNL1     0.0234
     106 H         1.366926   -0.295346   -0.948992 H        1 UNL1     0.0234
     107 H         0.0   -0.0   0.0 H        1 UNL1     0.0234
     108 H         0.84797   3.214415   1.932508 H        1 UNL1     0.2098
     109 H         0.809541   3.151926   -0.652158 H        1 UNL1     0.0234
     110 H         -0.310771   2.349722   -1.798531 H        1 UNL1     0.0234
     111 H         -0.255788   4.074383   -1.691919 H        1 UNL1     0.0234
     112 H         -3.49168   -2.052681   1.047762 H        1 UNL1     0.0342
     113 H         -3.514293   -0.420266   1.804696 H        1 UNL1     0.0342
     114 H         -4.424148   -0.730722   0.323565 H        1 UNL1     0.0342
     115 H         -2.992677   1.541861   3.203655 H        1 UNL1     0.0234
     116 H         -1.574342   1.422845   4.250054 H        1 UNL1     0.0234
     117 H         -1.982099   2.901678   3.355384 H        1 UNL1     0.0234
     118 H         0.111259   7.327186   -0.360216 H        1 UNL1     0.0309
     119 H         1.287669   8.280797   -1.316639 H        1 UNL1     0.0309
     120 H         1.162642   6.543145   -1.481234 H        1 UNL1     0.0309
     121 H         -1.469908   5.063093   4.177511 H        1 UNL1     0.0524
     122 H         -1.399556   6.179691   2.808162 H        1 UNL1     0.0524
     123 H         -2.895176   5.264335   3.122787 H        1 UNL1     0.0524
@<TRIPOS>BOND
     1     1     2    1
     2     1    42    1
     3     2     3    2
     4     3     4    1
     5     4     5    2
     6     5     7    1
     7     6    75    1
     8     6    76    1
     9     6    77    1
    10     7     9   am
    11     9    10    1
    12    10    11    2
    13    10    43    1
    14    11    14    1
    15    11    15    1
    16    12    13   ar
    17    12    27   ar
    18    12    43    1
    19    13    14    1
    20    13    30   ar
    21    14    17    2
    22    15    16    1
    23    16    17    1
    24    16    18    1
    25    16    22    1
    26    18    19    1
    27    19    20    1
    28    20    21    1
    29    21    22    1
    30    23    24    1
    31    23    88    1
    32    23    89    1
    33    24    25    1
    34    24    26    1
    35    24    90    1
    36    25    91    1
    37    25    92    1
    38    25    93    1
    39    26    94    1
    40    26    95    1
    41    26    96    1
    42    27    28   ar
    43    28    29   ar
    44    29    30   ar
    45    29    31    1
    46    30    33    1
    47    31    32    1
    48    32    33    1
    49    32    35    1
    50    34    97    1
    51    34    98    1
    52    34    99    1
    53    35    61    1
    54    36    37    1
    55    36    60    1
    56    37    38    1
    57    38    39    1
    58    39    40    1
    59    40    41    1
    60    41    42    1
    61    45   100    1
    62    47   101    1
    63    47   102    1
    64    47   103    1
    65    48   104    1
    66    49   105    1
    67    49   106    1
    68    49   107    1
    69    50   108    1
    70    51    59    1
    71    52   109    1
    72    52   110    1
    73    52   111    1
    74    53    54    1
    75    54    55    2
    76    54    56    1
    77    56   112    1
    78    56   113    1
    79    56   114    1
    80    57   115    1
    81    57   116    1
    82    57   117    1
    83    58   118    1
    84    58   119    1
    85    58   120    1
    86    59   121    1
    87    59   122    1
    88    59   123    1
    89    60    61    2
    90     1    47    1
    91     1    62    1
    92     2    63    1
    93     3    64    1
    94     4    65    1
    95     5     6    1
    96     7     8    2
    97     9    78    1
    98    15    79    1
    99    18    80    1
   100    18    81    1
   101    19    82    1
   102    19    83    1
   103    20    23    1
   104    21    84    1
   105    21    85    1
   106    22    86    1
   107    22    87    1
   108    27    45    1
   109    28    34    1
   110    32    58    1
   111    33    46    2
   112    36    51    1
   113    36    66    1
   114    37    52    1
   115    37    67    1
   116    38    53    1
   117    38    68    1
   118    42    48    1
   119    42    72    1
   120    43    44    2
   121    60    73    1
   122    61    74    1
   123    39    69    1
   124    39    57    1
   125    40    70    1
   126    40    50    1
   127    41    71    1
   128    41    49    1
