@<TRIPOS>MOLECULE
*****
 123 128 0 0 0
SMALL
GASTEIGER

@<TRIPOS>ATOM
     1 C         5.156862   1.771871   0.516257 C.3        1 UNL1     0.0009
     2 C         6.593282   2.586384   -0.326536 C.2        1 UNL1     -0.0787
     3 C         7.878355   2.495519   -0.987126 C.2        1 UNL1     -0.0649
     4 C         8.753149   3.736243   -1.73659 C.2        1 UNL1     -0.0542
     5 C         9.77568   4.035534   -2.670363 C.2        1 UNL1     0.0115
     6 C         10.910367   3.417104   -3.532543 C.3        1 UNL1     -0.0348
     7 C         9.866604   5.520439   -3.273503 C.2        1 UNL1     0.2441
     8 O         10.685067   6.345156   -2.890768 O.2        1 UNL1     -0.2702
     9 N         9.120284   5.726267   -4.446872 N.am        1 UNL1     -0.2772
     10 C         7.834487   6.106329   -4.137679 C.2        1 UNL1     0.1049
     11 C         6.992045   5.130396   -3.851203 C.2        1 UNL1     0.0801
     12 C         6.522766   7.70406   -2.729142 C.ar        1 UNL1     0.0753
     13 C         5.767136   6.571718   -2.287065 C.ar        1 UNL1     0.0305
     14 C         5.89284   5.267881   -2.934566 C.2        1 UNL1     0.0924
     15 N         7.12153   3.802328   -4.012435 N.pl3        1 UNL1     -0.3170
     16 C         5.853191   3.196611   -3.704736 C.3        1 UNL1     0.1275
     17 N         5.208279   4.14689   -2.725562 N.2        1 UNL1     -0.2557
     18 C         5.005323   3.254252   -4.971819 C.3        1 UNL1     0.0016
     19 C         5.768064   2.575964   -6.098647 C.3        1 UNL1     0.0026
     20 N         6.043038   1.198362   -5.714422 N.3        1 UNL1     -0.3018
     21 C         6.801991   1.03903   -4.472257 C.3        1 UNL1     0.0026
     22 C         6.015387   1.72365   -3.35313 C.3        1 UNL1     0.0016
     23 C         6.495965   0.383145   -6.823891 C.3        1 UNL1     0.0012
     24 C         5.34578   0.130265   -7.811252 C.3        1 UNL1     -0.0339
     25 C         5.381721   1.124934   -8.983173 C.3        1 UNL1     -0.0615
     26 C         5.383609   -1.308104   -8.297507 C.3        1 UNL1     -0.0615
     27 C         6.309951   8.969696   -2.187852 C.ar        1 UNL1     0.1347
     28 C         5.345673   9.232835   -1.231308 C.ar        1 UNL1     0.0342
     29 C         4.647515   8.0942   -0.776059 C.ar        1 UNL1     0.1435
     30 C         4.875037   6.814231   -1.283142 C.ar        1 UNL1     0.0774
     31 O         3.602476   8.201193   0.073325 O.3        1 UNL1     -0.4436
     32 C         2.88716   6.965311   -0.07429 C.3        1 UNL1     0.3143
     33 C         3.907281   5.978014   -0.604206 C.2        1 UNL1     0.2504
     34 C         4.890637   10.595951   -0.78977 C.3        1 UNL1     -0.0327
     35 O         2.523118   6.524286   1.239569 O.2        1 UNL1     -0.4528
     36 C         -0.709197   4.577803   0.825531 C.3        1 UNL1     0.0854
     37 C         -1.004894   3.317616   -0.075587 C.3        1 UNL1     0.0236
     38 C         -1.60281   2.052204   0.70734 C.3        1 UNL1     0.1131
     39 C         -0.879974   1.522046   2.010685 C.3        1 UNL1     0.0200
     40 C         0.781696   1.384164   2.058454 C.3        1 UNL1     0.0661
     41 C         1.749474   0.622164   0.892105 C.3        1 UNL1     0.0091
     42 C         3.457669   0.99381   0.33591 C.3        1 UNL1     0.0661
     43 C         7.478399   7.50304   -3.846557 C.2        1 UNL1     0.2131
     44 O         7.877053   8.404413   -4.561637 O.2        1 UNL1     -0.2851
     45 O         7.119266   10.009497   -2.640911 O.3        1 UNL1     -0.5056
     46 O         3.928349   4.774307   -0.475754 O.2        1 UNL1     -0.2836
     47 C         5.549272   1.341364   1.955236 C.3        1 UNL1     -0.0566
     48 O         3.912475   -0.41535   0.416753 O.3        1 UNL1     -0.3909
     49 C         0.921518   0.388174   -0.351773 C.3        1 UNL1     -0.0577
     50 O         1.374571   2.604022   2.45616 O.3        1 UNL1     -0.3910
     51 O         -0.838153   4.384765   2.216048 O.3        1 UNL1     -0.3753
     52 C         0.045056   3.164323   -1.224088 C.3        1 UNL1     -0.0564
     53 O         -2.196829   1.012228   -0.197047 O.3        1 UNL1     -0.4608
     54 C         -2.426538   -0.29628   0.139065 C.2        1 UNL1     0.3042
     55 O         -1.850976   -1.291869   -0.298393 O.2        1 UNL1     -0.2512
     56 C         -3.470193   -0.468913   1.205694 C.3        1 UNL1     0.0332
     57 C         -1.609326   2.185146   3.270255 C.3        1 UNL1     -0.0567
     58 C         1.815324   7.207557   -1.162414 C.3        1 UNL1     0.0210
     59 C         -1.159908   5.560815   2.957159 C.3        1 UNL1     0.0372
     60 C         0.617789   5.213533   0.60167 C.2        1 UNL1     -0.0208
     61 C         1.525082   5.651276   1.47571 C.2        1 UNL1     0.0882
     62 H         4.675996   2.753639   0.603501 H        1 UNL1     0.0365
     63 H         6.321686   3.638719   -0.22025 H        1 UNL1     0.0576
     64 H         8.341426   1.531256   -1.208189 H        1 UNL1     0.0615
     65 H         8.260371   4.648665   -1.389981 H        1 UNL1     0.0622
     66 H         -1.456036   5.321472   0.513705 H        1 UNL1     0.0645
     67 H         -1.869344   3.624166   -0.689846 H        1 UNL1     0.0362
     68 H         -2.553354   2.48396   1.056016 H        1 UNL1     0.0741
     69 H         -1.207578   0.509026   2.202712 H        1 UNL1     0.0359
     70 H         0.892911   0.722604   2.938811 H        1 UNL1     0.0600
     71 H         1.796058   -0.399637   1.317203 H        1 UNL1     0.0348
     72 H         3.345465   1.47956   1.3161 H        1 UNL1     0.0602
     73 H         0.739043   5.413398   -0.433994 H        1 UNL1     0.0628
     74 H         1.504101   5.438398   2.545047 H        1 UNL1     0.1022
     75 H         10.940868   2.308307   -3.403417 H        1 UNL1     0.0279
     76 H         10.814131   3.524842   -4.610596 H        1 UNL1     0.0279
     77 H         11.913477   3.703614   -3.18414 H        1 UNL1     0.0279
     78 H         9.064511   4.857087   -4.973648 H        1 UNL1     0.1553
     79 H         7.791333   3.378672   -4.627912 H        1 UNL1     0.1484
     80 H         4.04555   2.75846   -4.782633 H        1 UNL1     0.0317
     81 H         4.775001   4.290477   -5.24171 H        1 UNL1     0.0317
     82 H         6.697254   3.112089   -6.341731 H        1 UNL1     0.0428
     83 H         5.146348   2.629973   -6.992852 H        1 UNL1     0.0428
     84 H         6.925899   -0.003964   -4.164652 H        1 UNL1     0.0428
     85 H         7.830775   1.412063   -4.571086 H        1 UNL1     0.0428
     86 H         6.52922   1.473886   -2.443415 H        1 UNL1     0.0317
     87 H         5.037674   1.241209   -3.233036 H        1 UNL1     0.0317
     88 H         7.291662   0.929693   -7.346813 H        1 UNL1     0.0429
     89 H         6.931516   -0.5613   -6.473044 H        1 UNL1     0.0429
     90 H         4.390027   0.243846   -7.286038 H        1 UNL1     0.0308
     91 H         6.337316   1.079661   -9.514106 H        1 UNL1     0.0233
     92 H         4.570667   0.922559   -9.686625 H        1 UNL1     0.0233
     93 H         5.249394   2.16279   -8.654269 H        1 UNL1     0.0233
     94 H         4.693201   -1.441138   -9.137433 H        1 UNL1     0.0233
     95 H         6.38974   -1.558628   -8.645213 H        1 UNL1     0.0233
     96 H         5.100636   -2.005219   -7.503829 H        1 UNL1     0.0233
     97 H         4.088226   10.541123   -0.060138 H        1 UNL1     0.0280
     98 H         5.696337   11.165329   -0.308198 H        1 UNL1     0.0280
     99 H         4.526721   11.163888   -1.661611 H        1 UNL1     0.0280
     100 H         6.650078   10.759085   -2.962785 H        1 UNL1     0.2922
     101 H         4.686415   0.902706   2.455948 H        1 UNL1     0.0236
     102 H         5.993896   2.147648   2.537644 H        1 UNL1     0.0236
     103 H         6.309258   0.54223   1.955684 H        1 UNL1     0.0236
     104 H         4.328668   -0.541213   1.291917 H        1 UNL1     0.2098
     105 H         0.707046   1.287142   -0.924197 H        1 UNL1     0.0234
     106 H         1.297286   -0.396813   -1.007915 H        1 UNL1     0.0234
     107 H         0.0   -0.0   0.0 H        1 UNL1     0.0234
     108 H         1.190895   3.25814   1.754619 H        1 UNL1     0.2098
     109 H         1.070225   3.067269   -0.840264 H        1 UNL1     0.0234
     110 H         -0.174046   2.329904   -1.898983 H        1 UNL1     0.0234
     111 H         0.056086   4.043265   -1.882333 H        1 UNL1     0.0234
     112 H         -3.589613   -1.530826   1.441121 H        1 UNL1     0.0342
     113 H         -3.23966   0.106284   2.101152 H        1 UNL1     0.0342
     114 H         -4.427709   -0.101609   0.811466 H        1 UNL1     0.0342
     115 H         -2.677927   1.931812   3.303449 H        1 UNL1     0.0234
     116 H         -1.175534   1.905517   4.232379 H        1 UNL1     0.0234
     117 H         -1.652868   3.286905   3.223634 H        1 UNL1     0.0234
     118 H         0.909675   7.688025   -0.752588 H        1 UNL1     0.0309
     119 H         2.184995   7.800229   -2.005198 H        1 UNL1     0.0309
     120 H         1.433975   6.274685   -1.591867 H        1 UNL1     0.0309
     121 H         -0.341593   6.268071   2.82485 H        1 UNL1     0.0524
     122 H         -2.080477   6.046281   2.592589 H        1 UNL1     0.0524
     123 H         -1.281112   5.320437   4.009596 H        1 UNL1     0.0524
@<TRIPOS>BOND
     1     1     2    1
     2     1    42    1
     3     2     3    2
     4     3     4    1
     5     4     5    2
     6     5     7    1
     7     6    75    1
     8     6    76    1
     9     6    77    1
    10     7     9   am
    11     9    10    1
    12    10    11    2
    13    10    43    1
    14    11    14    1
    15    11    15    1
    16    12    13   ar
    17    12    27   ar
    18    12    43    1
    19    13    14    1
    20    13    30   ar
    21    14    17    2
    22    15    16    1
    23    16    17    1
    24    16    18    1
    25    16    22    1
    26    18    19    1
    27    19    20    1
    28    20    21    1
    29    21    22    1
    30    23    24    1
    31    23    88    1
    32    23    89    1
    33    24    25    1
    34    24    26    1
    35    24    90    1
    36    25    91    1
    37    25    92    1
    38    25    93    1
    39    26    94    1
    40    26    95    1
    41    26    96    1
    42    27    28   ar
    43    28    29   ar
    44    29    30   ar
    45    29    31    1
    46    30    33    1
    47    31    32    1
    48    32    33    1
    49    32    35    1
    50    34    97    1
    51    34    98    1
    52    34    99    1
    53    35    61    1
    54    36    37    1
    55    36    60    1
    56    37    38    1
    57    38    39    1
    58    39    40    1
    59    40    41    1
    60    41    42    1
    61    45   100    1
    62    47   101    1
    63    47   102    1
    64    47   103    1
    65    48   104    1
    66    49   105    1
    67    49   106    1
    68    49   107    1
    69    50   108    1
    70    51    59    1
    71    52   109    1
    72    52   110    1
    73    52   111    1
    74    53    54    1
    75    54    55    2
    76    54    56    1
    77    56   112    1
    78    56   113    1
    79    56   114    1
    80    57   115    1
    81    57   116    1
    82    57   117    1
    83    58   118    1
    84    58   119    1
    85    58   120    1
    86    59   121    1
    87    59   122    1
    88    59   123    1
    89    60    61    2
    90     1    47    1
    91     1    62    1
    92     2    63    1
    93     3    64    1
    94     4    65    1
    95     5     6    1
    96     7     8    2
    97     9    78    1
    98    15    79    1
    99    18    80    1
   100    18    81    1
   101    19    82    1
   102    19    83    1
   103    20    23    1
   104    21    84    1
   105    21    85    1
   106    22    86    1
   107    22    87    1
   108    27    45    1
   109    28    34    1
   110    32    58    1
   111    33    46    2
   112    36    51    1
   113    36    66    1
   114    37    52    1
   115    37    67    1
   116    38    53    1
   117    38    68    1
   118    42    48    1
   119    42    72    1
   120    43    44    2
   121    60    73    1
   122    61    74    1
   123    39    69    1
   124    39    57    1
   125    40    70    1
   126    40    50    1
   127    41    71    1
   128    41    49    1
