@<TRIPOS>MOLECULE
*****
 123 128 0 0 0
SMALL
GASTEIGER

@<TRIPOS>ATOM
     1 C         -2.585244   -1.762383   4.330722 C.3        1 UNL1     0.0009
     2 C         -3.938262   -2.861486   4.961875 C.2        1 UNL1     -0.0787
     3 C         -5.324872   -3.064446   5.325421 C.2        1 UNL1     -0.0649
     4 C         -6.078454   -4.50779   5.789349 C.2        1 UNL1     -0.0542
     5 C         -7.318592   -5.180073   5.920383 C.2        1 UNL1     0.0115
     6 C         -8.860155   -4.992849   5.877327 C.3        1 UNL1     -0.0348
     7 C         -7.325068   -6.780235   6.048559 C.2        1 UNL1     0.2441
     8 O         -7.482971   -7.361881   7.113115 O.2        1 UNL1     -0.2702
     9 N         -7.398868   -7.468795   4.825207 N.am        1 UNL1     -0.2772
     10 C         -6.138182   -7.677847   4.315019 C.2        1 UNL1     0.1049
     11 C         -5.60848   -6.672399   3.64218 C.2        1 UNL1     0.0801
     12 C         -3.862796   -8.514931   4.930845 C.ar        1 UNL1     0.0753
     13 C         -3.350601   -7.301537   4.370541 C.ar        1 UNL1     0.0305
     14 C         -4.197273   -6.401889   3.590263 C.2        1 UNL1     0.0924
     15 N         -6.176799   -5.542189   3.188125 N.pl3        1 UNL1     -0.3170
     16 C         -5.208603   -4.861515   2.369875 C.3        1 UNL1     0.1275
     17 N         -3.87356   -5.298857   2.921342 N.2        1 UNL1     -0.2557
     18 C         -5.303149   -5.456323   0.968103 C.3        1 UNL1     0.0016
     19 C         -6.73774   -5.328159   0.481161 C.3        1 UNL1     0.0026
     20 N         -7.106718   -3.919302   0.478507 N.3        1 UNL1     -0.3018
     21 C         -6.988565   -3.243231   1.772082 C.3        1 UNL1     0.0026
     22 C         -5.538742   -3.38039   2.240158 C.3        1 UNL1     0.0016
     23 C         -8.335935   -3.659638   -0.244157 C.3        1 UNL1     0.0012
     24 C         -8.632044   -4.800275   -1.230575 C.3        1 UNL1     -0.0339
     25 C         -8.081517   -6.142144   -0.720315 C.3        1 UNL1     -0.0615
     26 C         -10.123722   -4.87649   -1.506017 C.3        1 UNL1     -0.0615
     27 C         -3.024102   -9.425549   5.569191 C.ar        1 UNL1     0.1347
     28 C         -1.655572   -9.25157   5.673629 C.ar        1 UNL1     0.0342
     29 C         -1.180717   -8.02691   5.15799 C.ar        1 UNL1     0.1435
     30 C         -2.014293   -7.088683   4.54799 C.ar        1 UNL1     0.0774
     31 O         0.141169   -7.757785   5.085911 O.3        1 UNL1     -0.4436
     32 C         0.244389   -6.703982   4.11652 C.3        1 UNL1     0.3143
     33 C         -1.118095   -6.040858   4.105658 C.2        1 UNL1     0.2504
     34 C         -0.665669   -10.292753   6.116495 C.3        1 UNL1     -0.0327
     35 O         1.172789   -5.74136   4.630996 O.2        1 UNL1     -0.4528
     36 C         2.816652   -4.15703   1.598555 C.3        1 UNL1     0.0854
     37 C         2.150039   -3.405141   0.382902 C.3        1 UNL1     0.0236
     38 C         2.707554   -1.92547   0.115518 C.3        1 UNL1     0.1131
     39 C         2.78446   -0.888156   1.307295 C.3        1 UNL1     0.0200
     40 C         1.52002   -0.745112   2.385798 C.3        1 UNL1     0.0661
     41 C         -0.116335   -0.558543   1.979418 C.3        1 UNL1     0.0091
     42 C         -1.629732   -1.134966   2.841257 C.3        1 UNL1     0.0661
     43 C         -5.302552   -8.814044   4.73111 C.2        1 UNL1     0.2131
     44 O         -5.772349   -9.935547   4.796371 O.2        1 UNL1     -0.2851
     45 O         -3.609447   -10.560133   6.127337 O.3        1 UNL1     -0.5056
     46 O         -1.397886   -4.898529   3.818159 O.2        1 UNL1     -0.2836
     47 C         -2.150529   -0.756474   5.430336 C.3        1 UNL1     -0.0566
     48 O         -2.323026   0.171983   2.739558 O.3        1 UNL1     -0.3909
     49 C         -0.29453   -0.880005   0.512311 C.3        1 UNL1     -0.0577
     50 O         1.652806   -1.676968   3.440187 O.3        1 UNL1     -0.3910
     51 O         3.683123   -3.385782   2.399701 O.3        1 UNL1     -0.3753
     52 C         0.634183   -3.760817   0.239288 C.3        1 UNL1     -0.0564
     53 O         2.326298   -1.373527   -1.226991 O.3        1 UNL1     -0.4608
     54 C         2.992161   -0.380521   -1.896689 C.2        1 UNL1     0.3042
     55 O         2.50584   0.613237   -2.434997 O.2        1 UNL1     -0.2512
     56 C         4.484913   -0.549014   -1.892929 C.3        1 UNL1     0.0332
     57 C         4.2682   -0.945676   1.901754 C.3        1 UNL1     -0.0567
     58 C         0.476985   -7.388464   2.749438 C.3        1 UNL1     0.0210
     59 C         3.062025   -2.291867   3.073089 C.3        1 UNL1     0.0372
     60 C         1.862343   -4.828906   2.522155 C.2        1 UNL1     -0.0208
     61 C         1.819147   -4.850289   3.85498 C.2        1 UNL1     0.0882
     62 H         -1.893435   -2.611132   4.391845 H        1 UNL1     0.0365
     63 H         -3.373142   -3.766053   5.196116 H        1 UNL1     0.0576
     64 H         -6.077581   -2.288914   5.16703 H        1 UNL1     0.0615
     65 H         -5.243603   -5.182584   5.9971 H        1 UNL1     0.0622
     66 H         3.405503   -4.961659   1.136091 H        1 UNL1     0.0645
     67 H         2.525018   -3.944596   -0.504194 H        1 UNL1     0.0362
     68 H         3.753268   -2.164672   -0.131034 H        1 UNL1     0.0741
     69 H         2.859275   0.10964   0.895938 H        1 UNL1     0.0359
     70 H         1.77074   0.2301   2.84532 H        1 UNL1     0.0600
     71 H         -0.188277   0.546756   1.969709 H        1 UNL1     0.0348
     72 H         -0.827241   -1.152934   3.592923 H        1 UNL1     0.0602
     73 H         1.213814   -5.454027   1.960122 H        1 UNL1     0.0628
     74 H         2.408287   -4.199085   4.501574 H        1 UNL1     0.1022
     75 H         -9.276653   -5.389579   4.92016 H        1 UNL1     0.0279
     76 H         -9.435622   -5.533734   6.625225 H        1 UNL1     0.0279
     77 H         -9.158781   -3.935745   5.82205 H        1 UNL1     0.0279
     78 H         -7.914326   -6.909718   4.148588 H        1 UNL1     0.1553
     79 H         -7.166439   -5.424463   3.071134 H        1 UNL1     0.1484
     80 H         -4.606932   -4.926165   0.307058 H        1 UNL1     0.0317
     81 H         -4.996557   -6.507823   0.967722 H        1 UNL1     0.0317
     82 H         -7.431416   -5.917839   1.098415 H        1 UNL1     0.0428
     83 H         -6.783072   -5.759938   -0.51912 H        1 UNL1     0.0428
     84 H         -7.194435   -2.169303   1.726155 H        1 UNL1     0.0428
     85 H         -7.718002   -3.623814   2.500363 H        1 UNL1     0.0428
     86 H         -5.458111   -2.765012   3.116969 H        1 UNL1     0.0317
     87 H         -4.866145   -2.89192   1.524542 H        1 UNL1     0.0317
     88 H         -9.155552   -3.605952   0.484293 H        1 UNL1     0.0429
     89 H         -8.298962   -2.690778   -0.758665 H        1 UNL1     0.0429
     90 H         -8.160744   -4.573237   -2.194184 H        1 UNL1     0.0308
     91 H         -7.09279   -6.351597   -1.139421 H        1 UNL1     0.0233
     92 H         -8.016354   -6.143329   0.370264 H        1 UNL1     0.0233
     93 H         -8.726528   -6.987478   -0.989026 H        1 UNL1     0.0233
     94 H         -10.67504   -5.002943   -0.56799 H        1 UNL1     0.0233
     95 H         -10.46488   -3.949438   -1.975218 H        1 UNL1     0.0233
     96 H         -10.365533   -5.715281   -2.164747 H        1 UNL1     0.0233
     97 H         0.084831   -10.49059   5.356995 H        1 UNL1     0.0280
     98 H         -0.112097   -9.98287   7.012479 H        1 UNL1     0.0280
     99 H         -1.194021   -11.235418   6.334029 H        1 UNL1     0.0280
     100 H         -4.371915   -10.389536   6.651896 H        1 UNL1     0.2922
     101 H         -2.69619   -0.960152   6.351436 H        1 UNL1     0.0236
     102 H         -2.244421   0.283912   5.12088 H        1 UNL1     0.0236
     103 H         -1.088306   -0.87393   5.702512 H        1 UNL1     0.0236
     104 H         -2.690685   0.380191   3.62072 H        1 UNL1     0.2098
     105 H         0.325616   -1.697445   0.153113 H        1 UNL1     0.0234
     106 H         -1.328703   -1.025059   0.200263 H        1 UNL1     0.0234
     107 H         0.0   0.0   0.0 H        1 UNL1     0.0234
     108 H         0.989892   -1.443995   4.118447 H        1 UNL1     0.2098
     109 H         0.470458   -4.626552   -0.417528 H        1 UNL1     0.0234
     110 H         0.139235   -3.931955   1.201307 H        1 UNL1     0.0234
     111 H         0.065567   -2.935473   -0.209522 H        1 UNL1     0.0234
     112 H         4.740466   -1.599205   -1.722233 H        1 UNL1     0.0342
     113 H         4.941013   -0.180054   -2.810363 H        1 UNL1     0.0342
     114 H         4.894245   0.0371   -1.058613 H        1 UNL1     0.0342
     115 H         4.375682   -0.31294   2.793539 H        1 UNL1     0.0234
     116 H         4.60027   -1.950537   2.170144 H        1 UNL1     0.0234
     117 H         5.027175   -0.503233   1.233816 H        1 UNL1     0.0234
     118 H         1.498202   -7.214953   2.367318 H        1 UNL1     0.0309
     119 H         0.279993   -8.46504   2.768951 H        1 UNL1     0.0309
     120 H         -0.161402   -6.977652   1.959627 H        1 UNL1     0.0309
     121 H         2.459636   -2.702413   3.882988 H        1 UNL1     0.0524
     122 H         3.79825   -1.604725   3.522363 H        1 UNL1     0.0524
     123 H         2.433848   -1.734244   2.384218 H        1 UNL1     0.0524
@<TRIPOS>BOND
     1     1     2    1
     2     1    42    1
     3     2     3    2
     4     3     4    1
     5     4     5    2
     6     5     7    1
     7     6    75    1
     8     6    76    1
     9     6    77    1
    10     7     9   am
    11     9    10    1
    12    10    11    2
    13    10    43    1
    14    11    14    1
    15    11    15    1
    16    12    13   ar
    17    12    27   ar
    18    12    43    1
    19    13    14    1
    20    13    30   ar
    21    14    17    2
    22    15    16    1
    23    16    17    1
    24    16    18    1
    25    16    22    1
    26    18    19    1
    27    19    20    1
    28    20    21    1
    29    21    22    1
    30    23    24    1
    31    23    88    1
    32    23    89    1
    33    24    25    1
    34    24    26    1
    35    24    90    1
    36    25    91    1
    37    25    92    1
    38    25    93    1
    39    26    94    1
    40    26    95    1
    41    26    96    1
    42    27    28   ar
    43    28    29   ar
    44    29    30   ar
    45    29    31    1
    46    30    33    1
    47    31    32    1
    48    32    33    1
    49    32    35    1
    50    34    97    1
    51    34    98    1
    52    34    99    1
    53    35    61    1
    54    36    37    1
    55    36    60    1
    56    37    38    1
    57    38    39    1
    58    39    40    1
    59    40    41    1
    60    41    42    1
    61    45   100    1
    62    47   101    1
    63    47   102    1
    64    47   103    1
    65    48   104    1
    66    49   105    1
    67    49   106    1
    68    49   107    1
    69    50   108    1
    70    51    59    1
    71    52   109    1
    72    52   110    1
    73    52   111    1
    74    53    54    1
    75    54    55    2
    76    54    56    1
    77    56   112    1
    78    56   113    1
    79    56   114    1
    80    57   115    1
    81    57   116    1
    82    57   117    1
    83    58   118    1
    84    58   119    1
    85    58   120    1
    86    59   121    1
    87    59   122    1
    88    59   123    1
    89    60    61    2
    90     1    47    1
    91     1    62    1
    92     2    63    1
    93     3    64    1
    94     4    65    1
    95     5     6    1
    96     7     8    2
    97     9    78    1
    98    15    79    1
    99    18    80    1
   100    18    81    1
   101    19    82    1
   102    19    83    1
   103    20    23    1
   104    21    84    1
   105    21    85    1
   106    22    86    1
   107    22    87    1
   108    27    45    1
   109    28    34    1
   110    32    58    1
   111    33    46    2
   112    36    51    1
   113    36    66    1
   114    37    52    1
   115    37    67    1
   116    38    53    1
   117    38    68    1
   118    42    48    1
   119    42    72    1
   120    43    44    2
   121    60    73    1
   122    61    74    1
   123    39    69    1
   124    39    57    1
   125    40    70    1
   126    40    50    1
   127    41    71    1
   128    41    49    1
