@<TRIPOS>MOLECULE
*****
 123 128 0 0 0
SMALL
GASTEIGER

@<TRIPOS>ATOM
     1 C         5.167595   1.747066   0.492948 C.3        1 UNL1     0.0009
     2 C         6.604699   2.553033   -0.356868 C.2        1 UNL1     -0.0787
     3 C         7.886684   2.454687   -1.022367 C.2        1 UNL1     -0.0649
     4 C         8.764658   3.689805   -1.777352 C.2        1 UNL1     -0.0542
     5 C         9.784964   3.982463   -2.715651 C.2        1 UNL1     0.0115
     6 C         10.913151   3.356975   -3.581261 C.3        1 UNL1     -0.0348
     7 C         9.880874   5.465898   -3.32163 C.2        1 UNL1     0.2441
     8 O         10.704928   6.287168   -2.943508 O.2        1 UNL1     -0.2702
     9 N         9.130954   5.673491   -4.492389 N.am        1 UNL1     -0.2772
     10 C         7.848292   6.060451   -4.178765 C.2        1 UNL1     0.1049
     11 C         7.002153   5.089194   -3.887335 C.2        1 UNL1     0.0801
     12 C         6.550095   7.667013   -2.767743 C.ar        1 UNL1     0.0753
     13 C         5.790606   6.539174   -2.320794 C.ar        1 UNL1     0.0305
     14 C         5.907276   5.233658   -2.966602 C.2        1 UNL1     0.0924
     15 N         7.124405   3.760233   -4.046852 N.pl3        1 UNL1     -0.3170
     16 C         5.854301   3.161339   -3.73314 C.3        1 UNL1     0.1275
     17 N         5.217989   4.116431   -2.753023 N.2        1 UNL1     -0.2557
     18 C         5.001729   3.221097   -4.996964 C.3        1 UNL1     0.0016
     19 C         5.756634   2.537162   -6.125653 C.3        1 UNL1     0.0026
     20 N         6.026282   1.158848   -5.740209 N.3        1 UNL1     -0.3018
     21 C         6.789337   0.997801   -4.500782 C.3        1 UNL1     0.0026
     22 C         6.010571   1.688174   -3.37971 C.3        1 UNL1     0.0016
     23 C         6.470768   0.339554   -6.850089 C.3        1 UNL1     0.0012
     24 C         5.315448   0.090761   -7.832481 C.3        1 UNL1     -0.0339
     25 C         5.341543   1.094328   -8.997054 C.3        1 UNL1     -0.0615
     26 C         5.354511   -1.343788   -8.329796 C.3        1 UNL1     -0.0615
     27 C         6.345708   8.934585   -2.227739 C.ar        1 UNL1     0.1347
     28 C         5.386535   9.204096   -1.267841 C.ar        1 UNL1     0.0342
     29 C         4.684538   8.069702   -0.807936 C.ar        1 UNL1     0.1435
     30 C         4.903697   6.78778   -1.313768 C.ar        1 UNL1     0.0774
     31 O         3.643408   8.183294   0.045382 O.3        1 UNL1     -0.4436
     32 C         2.921387   6.95074   -0.09734 C.3        1 UNL1     0.3143
     33 C         3.934492   5.957508   -0.629621 C.2        1 UNL1     0.2504
     34 C         4.940021   10.570186   -0.826795 C.3        1 UNL1     -0.0327
     35 O         2.560356   6.513706   1.218681 O.2        1 UNL1     -0.4528
     36 C         -0.683194   4.582632   0.820654 C.3        1 UNL1     0.0854
     37 C         -0.988703   3.32244   -0.077179 C.3        1 UNL1     0.0236
     38 C         -1.589794   2.061315   0.710218 C.3        1 UNL1     0.1131
     39 C         -0.864453   1.529727   2.011588 C.3        1 UNL1     0.0200
     40 C         0.796687   1.383666   2.053034 C.3        1 UNL1     0.0661
     41 C         1.756053   0.614935   0.884155 C.3        1 UNL1     0.0091
     42 C         3.463861   0.977164   0.320606 C.3        1 UNL1     0.0661
     43 C         7.500295   7.459395   -3.888581 C.2        1 UNL1     0.2131
     44 O         7.90059   8.357591   -4.606736 O.2        1 UNL1     -0.2851
     45 O         7.158377   9.969598   -2.685727 O.3        1 UNL1     -0.5056
     46 O         3.950091   4.753926   -0.499238 O.2        1 UNL1     -0.2836
     47 C         5.563547   1.316995   1.931086 C.3        1 UNL1     -0.0566
     48 O         3.911981   -0.434104   0.402015 O.3        1 UNL1     -0.3909
     49 C         0.922037   0.383005   -0.356054 C.3        1 UNL1     -0.0577
     50 O         1.397178   2.601218   2.446356 O.3        1 UNL1     -0.3910
     51 O         -0.80761   4.392539   2.21199 O.3        1 UNL1     -0.3753
     52 C         0.055927   3.16203   -1.229554 C.3        1 UNL1     -0.0564
     53 O         -2.192539   1.022808   -0.190077 O.3        1 UNL1     -0.4608
     54 C         -2.427411   -0.283983   0.14913 C.2        1 UNL1     0.3042
     55 O         -1.858532   -1.283143   -0.288927 O.2        1 UNL1     -0.2512
     56 C         -3.467686   -0.449661   1.220154 C.3        1 UNL1     0.0332
     57 C         -1.585521   2.198529   3.272913 C.3        1 UNL1     -0.0567
     58 C         1.846475   7.19651   -1.181633 C.3        1 UNL1     0.0210
     59 C         -1.151513   5.565043   2.948761 C.3        1 UNL1     0.0372
     60 C         0.646037   5.211386   0.590497 C.2        1 UNL1     -0.0208
     61 C         1.558939   5.646059   1.460218 C.2        1 UNL1     0.0882
     62 H         4.691958   2.731355   0.580443 H        1 UNL1     0.0365
     63 H         6.338753   3.606879   -0.251273 H        1 UNL1     0.0576
     64 H         8.344085   1.487769   -1.24364 H        1 UNL1     0.0615
     65 H         8.277789   4.605238   -1.430331 H        1 UNL1     0.0622
     66 H         -1.427558   5.329487   0.510531 H        1 UNL1     0.0645
     67 H         -1.85404   3.632267   -0.688537 H        1 UNL1     0.0362
     68 H         -2.536798   2.498367   1.061917 H        1 UNL1     0.0741
     69 H         -1.196322   0.518668   2.206602 H        1 UNL1     0.0359
     70 H         0.908095   0.723019   2.934053 H        1 UNL1     0.0600
     71 H         1.799244   -0.40638   1.310777 H        1 UNL1     0.0348
     72 H         3.357944   1.465087   1.300416 H        1 UNL1     0.0602
     73 H         0.764188   5.408931   -0.445971 H        1 UNL1     0.0628
     74 H         1.541128   5.435059   2.529984 H        1 UNL1     0.1022
     75 H         10.957265   2.251633   -3.428589 H        1 UNL1     0.0279
     76 H         10.799745   3.440143   -4.659821 H        1 UNL1     0.0279
     77 H         11.918258   3.661267   -3.254357 H        1 UNL1     0.0279
     78 H         9.068785   4.803728   -5.017485 H        1 UNL1     0.1553
     79 H         7.78966   3.332235   -4.664256 H        1 UNL1     0.1484
     80 H         4.040261   2.730396   -4.803164 H        1 UNL1     0.0317
     81 H         4.775489   4.258006   -5.267679 H        1 UNL1     0.0317
     82 H         6.687506   3.068258   -6.373298 H        1 UNL1     0.0428
     83 H         5.131664   2.59278   -7.017488 H        1 UNL1     0.0428
     84 H         6.90928   -0.045286   -4.191921 H        1 UNL1     0.0428
     85 H         7.819562   1.365551   -4.604292 H        1 UNL1     0.0428
     86 H         6.526749   1.437365   -2.471611 H        1 UNL1     0.0317
     87 H         5.030957   1.210798   -3.254953 H        1 UNL1     0.0317
     88 H         7.267095   0.881273   -7.37706 H        1 UNL1     0.0429
     89 H         6.903008   -0.606462   -6.499381 H        1 UNL1     0.0429
     90 H         4.362521   0.197593   -7.300758 H        1 UNL1     0.0308
     91 H         6.291735   1.05148   -9.537794 H        1 UNL1     0.0233
     92 H         4.523179   0.898758   -9.693934 H        1 UNL1     0.0233
     93 H         5.21436   2.129858   -8.658915 H        1 UNL1     0.0233
     94 H         4.658346   -1.47289   -9.165574 H        1 UNL1     0.0233
     95 H         6.358874   -1.588258   -8.686799 H        1 UNL1     0.0233
     96 H         5.079778   -2.047791   -7.539309 H        1 UNL1     0.0233
     97 H         4.14653   10.520418   -0.087115 H        1 UNL1     0.0280
     98 H         5.752859   11.139834   -0.357699 H        1 UNL1     0.0280
     99 H         4.566675   11.135106   -1.696607 H        1 UNL1     0.0280
     100 H         6.691636   10.720453   -3.008206 H        1 UNL1     0.2922
     101 H         4.700508   0.883461   2.435932 H        1 UNL1     0.0236
     102 H         6.014466   2.122022   2.510385 H        1 UNL1     0.0236
     103 H         6.319552   0.514096   1.929875 H        1 UNL1     0.0236
     104 H         4.331316   -0.560493   1.275602 H        1 UNL1     0.2098
     105 H         0.709769   1.28208   -0.929133 H        1 UNL1     0.0234
     106 H         1.291306   -0.404925   -1.012357 H        1 UNL1     0.0234
     107 H         0.0   -0.0   0.0 H        1 UNL1     0.0234
     108 H         1.199555   3.259562   1.7526 H        1 UNL1     0.2098
     109 H         1.080658   3.048125   -0.849206 H        1 UNL1     0.0234
     110 H         -0.176642   2.335211   -1.909279 H        1 UNL1     0.0234
     111 H         0.077507   4.045039   -1.882068 H        1 UNL1     0.0234
     112 H         -3.600555   -1.511448   1.448844 H        1 UNL1     0.0342
     113 H         -3.224462   0.116   2.118326 H        1 UNL1     0.0342
     114 H         -4.422098   -0.066405   0.833661 H        1 UNL1     0.0342
     115 H         -2.655227   1.950565   3.310745 H        1 UNL1     0.0234
     116 H         -1.149324   1.918339   4.233785 H        1 UNL1     0.0234
     117 H         -1.623777   3.300412   3.224618 H        1 UNL1     0.0234
     118 H         0.945474   7.683561   -0.769342 H        1 UNL1     0.0309
     119 H         2.216177   7.784643   -2.027577 H        1 UNL1     0.0309
     120 H         1.4577   6.2648   -1.606928 H        1 UNL1     0.0309
     121 H         -0.347039   6.287398   2.813188 H        1 UNL1     0.0524
     122 H         -2.081466   6.031286   2.582916 H        1 UNL1     0.0524
     123 H         -1.267463   5.326458   4.002197 H        1 UNL1     0.0524
@<TRIPOS>BOND
     1     1     2    1
     2     1    42    1
     3     2     3    2
     4     3     4    1
     5     4     5    2
     6     5     7    1
     7     6    75    1
     8     6    76    1
     9     6    77    1
    10     7     9   am
    11     9    10    1
    12    10    11    2
    13    10    43    1
    14    11    14    1
    15    11    15    1
    16    12    13   ar
    17    12    27   ar
    18    12    43    1
    19    13    14    1
    20    13    30   ar
    21    14    17    2
    22    15    16    1
    23    16    17    1
    24    16    18    1
    25    16    22    1
    26    18    19    1
    27    19    20    1
    28    20    21    1
    29    21    22    1
    30    23    24    1
    31    23    88    1
    32    23    89    1
    33    24    25    1
    34    24    26    1
    35    24    90    1
    36    25    91    1
    37    25    92    1
    38    25    93    1
    39    26    94    1
    40    26    95    1
    41    26    96    1
    42    27    28   ar
    43    28    29   ar
    44    29    30   ar
    45    29    31    1
    46    30    33    1
    47    31    32    1
    48    32    33    1
    49    32    35    1
    50    34    97    1
    51    34    98    1
    52    34    99    1
    53    35    61    1
    54    36    37    1
    55    36    60    1
    56    37    38    1
    57    38    39    1
    58    39    40    1
    59    40    41    1
    60    41    42    1
    61    45   100    1
    62    47   101    1
    63    47   102    1
    64    47   103    1
    65    48   104    1
    66    49   105    1
    67    49   106    1
    68    49   107    1
    69    50   108    1
    70    51    59    1
    71    52   109    1
    72    52   110    1
    73    52   111    1
    74    53    54    1
    75    54    55    2
    76    54    56    1
    77    56   112    1
    78    56   113    1
    79    56   114    1
    80    57   115    1
    81    57   116    1
    82    57   117    1
    83    58   118    1
    84    58   119    1
    85    58   120    1
    86    59   121    1
    87    59   122    1
    88    59   123    1
    89    60    61    2
    90     1    47    1
    91     1    62    1
    92     2    63    1
    93     3    64    1
    94     4    65    1
    95     5     6    1
    96     7     8    2
    97     9    78    1
    98    15    79    1
    99    18    80    1
   100    18    81    1
   101    19    82    1
   102    19    83    1
   103    20    23    1
   104    21    84    1
   105    21    85    1
   106    22    86    1
   107    22    87    1
   108    27    45    1
   109    28    34    1
   110    32    58    1
   111    33    46    2
   112    36    51    1
   113    36    66    1
   114    37    52    1
   115    37    67    1
   116    38    53    1
   117    38    68    1
   118    42    48    1
   119    42    72    1
   120    43    44    2
   121    60    73    1
   122    61    74    1
   123    39    69    1
   124    39    57    1
   125    40    70    1
   126    40    50    1
   127    41    71    1
   128    41    49    1
