@<TRIPOS>MOLECULE
*****
 123 128 0 0 0
SMALL
GASTEIGER

@<TRIPOS>ATOM
     1 C         1.777529   -1.729914   -4.883345 C.3        1 UNL1     0.0009
     2 C         1.859254   -1.377724   -6.701674 C.2        1 UNL1     -0.0787
     3 C         1.380662   -1.608216   -8.048473 C.2        1 UNL1     -0.0649
     4 C         1.831466   -0.799183   -9.465723 C.2        1 UNL1     -0.0542
     5 C         1.458429   -0.496346   -10.798469 C.2        1 UNL1     0.0115
     6 C         0.448109   -0.835958   -11.928619 C.3        1 UNL1     -0.0348
     7 C         2.172451   0.732471   -11.544907 C.2        1 UNL1     0.2441
     8 O         3.060784   0.582834   -12.372555 O.2        1 UNL1     -0.2702
     9 N         1.533339   1.9736   -11.379726 N.am        1 UNL1     -0.2772
     10 C         1.995605   2.604899   -10.247872 C.2        1 UNL1     0.1049
     11 C         1.436961   2.239462   -9.108313 C.2        1 UNL1     0.0801
     12 C         4.097389   3.250537   -9.054979 C.ar        1 UNL1     0.0753
     13 C         3.526574   2.649925   -7.887913 C.ar        1 UNL1     0.0305
     14 C         2.124034   2.242353   -7.845262 C.2        1 UNL1     0.0924
     15 N         0.338554   1.498228   -8.883367 N.pl3        1 UNL1     -0.3170
     16 C         0.062156   1.53938   -7.471926 C.3        1 UNL1     0.1275
     17 N         1.408789   1.767023   -6.829678 N.2        1 UNL1     -0.2557
     18 C         -0.752139   2.802146   -7.207265 C.3        1 UNL1     0.0016
     19 C         -1.99048   2.775984   -8.088978 C.3        1 UNL1     0.0026
     20 N         -2.76149   1.580412   -7.777241 N.3        1 UNL1     -0.3018
     21 C         -2.041716   0.31587   -7.942252 C.3        1 UNL1     0.0026
     22 C         -0.804241   0.362098   -7.044247 C.3        1 UNL1     0.0016
     23 C         -4.097388   1.608568   -8.338691 C.3        1 UNL1     0.0012
     24 C         -4.965211   2.648136   -7.612098 C.3        1 UNL1     -0.0339
     25 C         -4.982213   3.989912   -8.362701 C.3        1 UNL1     -0.0615
     26 C         -6.368424   2.103967   -7.408006 C.3        1 UNL1     -0.0615
     27 C         5.399114   3.746104   -9.04842 C.ar        1 UNL1     0.1347
     28 C         6.209553   3.733378   -7.927226 C.ar        1 UNL1     0.0342
     29 C         5.64397   3.093245   -6.804057 C.ar        1 UNL1     0.1435
     30 C         4.354489   2.559905   -6.806725 C.ar        1 UNL1     0.0774
     31 O         6.264797   3.096391   -5.604236 O.3        1 UNL1     -0.4436
     32 C         5.226594   2.800565   -4.65793 C.3        1 UNL1     0.3143
     33 C         4.15784   2.080093   -5.454735 C.2        1 UNL1     0.2504
     34 C         7.513053   4.466351   -7.773157 C.3        1 UNL1     -0.0327
     35 O         5.759259   1.854096   -3.723202 O.2        1 UNL1     -0.4528
     36 C         3.959364   2.503242   -0.444929 C.3        1 UNL1     0.0854
     37 C         2.412564   2.486522   -0.137269 C.3        1 UNL1     0.0236
     38 C         1.971294   1.510009   1.055815 C.3        1 UNL1     0.1131
     39 C         2.453208   0.003347   1.056215 C.3        1 UNL1     0.0200
     40 C         2.416714   -0.895742   -0.34833 C.3        1 UNL1     0.0661
     41 C         1.093841   -1.042624   -1.400016 C.3        1 UNL1     0.0091
     42 C         1.03963   -1.268059   -3.219808 C.3        1 UNL1     0.0661
     43 C         3.226683   3.409138   -10.246188 C.2        1 UNL1     0.2131
     44 O         3.436148   4.220398   -11.12977 O.2        1 UNL1     -0.2851
     45 O         5.8945   4.273766   -10.239051 O.3        1 UNL1     -0.5056
     46 O         3.342192   1.274526   -5.065334 O.2        1 UNL1     -0.2836
     47 C         2.416943   -3.109856   -4.572068 C.3        1 UNL1     -0.0566
     48 O         0.047775   -2.369277   -3.168264 O.3        1 UNL1     -0.3909
     49 C         0.077   0.023132   -1.056956 C.3        1 UNL1     -0.0577
     50 O         3.60604   -0.714763   -1.090268 O.3        1 UNL1     -0.3910
     51 O         4.73345   1.542087   0.236542 O.3        1 UNL1     -0.3753
     52 C         1.558986   2.649007   -1.43725 C.3        1 UNL1     -0.0564
     53 O         0.5809   1.766805   1.558988 O.3        1 UNL1     -0.4608
     54 C         -0.185898   0.877545   2.265507 C.2        1 UNL1     0.3042
     55 O         -1.210709   0.31065   1.888373 O.2        1 UNL1     -0.2512
     56 C         0.365806   0.55524   3.625086 C.3        1 UNL1     0.0332
     57 C         3.768836   -0.081955   1.961764 C.3        1 UNL1     -0.0567
     58 C         4.664357   4.161608   -4.185723 C.3        1 UNL1     0.0210
     59 C         6.090185   1.918977   0.466952 C.3        1 UNL1     0.0372
     60 C         4.31502   2.397332   -1.886266 C.2        1 UNL1     -0.0208
     61 C         5.241036   1.656017   -2.49593 C.2        1 UNL1     0.0882
     62 H         2.560222   -0.978833   -4.722164 H        1 UNL1     0.0365
     63 H         2.711816   -0.696388   -6.738961 H        1 UNL1     0.0576
     64 H         0.522032   -2.25314   -8.248315 H        1 UNL1     0.0615
     65 H         2.733841   -0.252838   -9.178129 H        1 UNL1     0.0622
     66 H         4.293761   3.500015   -0.124512 H        1 UNL1     0.0645
     67 H         2.216825   3.477996   0.306832 H        1 UNL1     0.0362
     68 H         2.505503   1.987434   1.891403 H        1 UNL1     0.0741
     69 H         1.815088   -0.565983   1.718841 H        1 UNL1     0.0359
     70 H         2.507069   -1.91443   0.074955 H        1 UNL1     0.0600
     71 H         0.611476   -1.94643   -0.978808 H        1 UNL1     0.0348
     72 H         2.050396   -1.56784   -2.907079 H        1 UNL1     0.0602
     73 H         3.781002   3.13444   -2.432841 H        1 UNL1     0.0628
     74 H         5.789739   0.841772   -2.021411 H        1 UNL1     0.1022
     75 H         -0.278369   -1.611334   -11.585027 H        1 UNL1     0.0279
     76 H         -0.205843   -0.029675   -12.253153 H        1 UNL1     0.0279
     77 H         0.919981   -1.344136   -12.782313 H        1 UNL1     0.0279
     78 H         0.532382   1.830074   -11.263269 H        1 UNL1     0.1553
     79 H         -0.372296   1.332678   -9.572003 H        1 UNL1     0.1484
     80 H         -1.018247   2.83966   -6.143994 H        1 UNL1     0.0317
     81 H         -0.160017   3.700078   -7.414052 H        1 UNL1     0.0317
     82 H         -1.730534   2.811988   -9.157174 H        1 UNL1     0.0428
     83 H         -2.555658   3.686078   -7.885624 H        1 UNL1     0.0428
     84 H         -2.616165   -0.560333   -7.625885 H        1 UNL1     0.0428
     85 H         -1.806191   0.114108   -8.996357 H        1 UNL1     0.0428
     86 H         -0.377625   -0.622815   -7.088218 H        1 UNL1     0.0317
     87 H         -1.106511   0.461114   -5.994521 H        1 UNL1     0.0317
     88 H         -4.017872   1.896651   -9.395091 H        1 UNL1     0.0429
     89 H         -4.562822   0.614914   -8.310464 H        1 UNL1     0.0429
     90 H         -4.559682   2.815294   -6.607201 H        1 UNL1     0.0308
     91 H         -5.345813   3.86784   -9.387394 H        1 UNL1     0.0233
     92 H         -5.612096   4.715482   -7.842696 H        1 UNL1     0.0233
     93 H         -3.985806   4.443124   -8.430579 H        1 UNL1     0.0233
     94 H         -7.036968   2.901718   -7.066714 H        1 UNL1     0.0233
     95 H         -6.760193   1.716988   -8.352848 H        1 UNL1     0.0233
     96 H         -6.381033   1.301225   -6.665433 H        1 UNL1     0.0233
     97 H         7.943069   4.329707   -6.785409 H        1 UNL1     0.0280
     98 H         8.272599   4.113596   -8.483023 H        1 UNL1     0.0280
     99 H         7.351154   5.544875   -7.933378 H        1 UNL1     0.0280
     100 H         6.230752   5.149925   -10.169038 H        1 UNL1     0.2922
     101 H         2.402069   -3.287861   -3.49701 H        1 UNL1     0.0236
     102 H         3.415881   -3.223867   -4.991718 H        1 UNL1     0.0236
     103 H         1.834983   -3.942308   -5.001649 H        1 UNL1     0.0236
     104 H         0.542187   -3.212166   -3.176418 H        1 UNL1     0.2098
     105 H         0.36624   1.02997   -1.347523 H        1 UNL1     0.0234
     106 H         -0.937527   -0.190357   -1.393237 H        1 UNL1     0.0234
     107 H         -0.0   0.0   0.0 H        1 UNL1     0.0234
     108 H         3.635767   0.221374   -1.366911 H        1 UNL1     0.2098
     109 H         1.753225   1.848901   -2.165134 H        1 UNL1     0.0234
     110 H         0.483298   2.712345   -1.240713 H        1 UNL1     0.0234
     111 H         1.790076   3.587548   -1.958484 H        1 UNL1     0.0234
     112 H         -0.288183   -0.160835   4.13192 H        1 UNL1     0.0342
     113 H         1.387938   0.183029   3.57459 H        1 UNL1     0.0342
     114 H         0.377143   1.479695   4.218736 H        1 UNL1     0.0342
     115 H         3.578599   0.252286   2.990978 H        1 UNL1     0.0234
     116 H         4.206128   -1.080872   2.01646 H        1 UNL1     0.0234
     117 H         4.561902   0.620532   1.652732 H        1 UNL1     0.0234
     118 H         5.277376   4.607392   -3.382921 H        1 UNL1     0.0309
     119 H         4.556037   4.886951   -4.99834 H        1 UNL1     0.0309
     120 H         3.673986   4.070736   -3.72636 H        1 UNL1     0.0309
     121 H         6.56415   2.054992   -0.504754 H        1 UNL1     0.0524
     122 H         6.172276   2.873578   1.012878 H        1 UNL1     0.0524
     123 H         6.604718   1.145445   1.029979 H        1 UNL1     0.0524
@<TRIPOS>BOND
     1     1     2    1
     2     1    42    1
     3     2     3    2
     4     3     4    1
     5     4     5    2
     6     5     7    1
     7     6    75    1
     8     6    76    1
     9     6    77    1
    10     7     9   am
    11     9    10    1
    12    10    11    2
    13    10    43    1
    14    11    14    1
    15    11    15    1
    16    12    13   ar
    17    12    27   ar
    18    12    43    1
    19    13    14    1
    20    13    30   ar
    21    14    17    2
    22    15    16    1
    23    16    17    1
    24    16    18    1
    25    16    22    1
    26    18    19    1
    27    19    20    1
    28    20    21    1
    29    21    22    1
    30    23    24    1
    31    23    88    1
    32    23    89    1
    33    24    25    1
    34    24    26    1
    35    24    90    1
    36    25    91    1
    37    25    92    1
    38    25    93    1
    39    26    94    1
    40    26    95    1
    41    26    96    1
    42    27    28   ar
    43    28    29   ar
    44    29    30   ar
    45    29    31    1
    46    30    33    1
    47    31    32    1
    48    32    33    1
    49    32    35    1
    50    34    97    1
    51    34    98    1
    52    34    99    1
    53    35    61    1
    54    36    37    1
    55    36    60    1
    56    37    38    1
    57    38    39    1
    58    39    40    1
    59    40    41    1
    60    41    42    1
    61    45   100    1
    62    47   101    1
    63    47   102    1
    64    47   103    1
    65    48   104    1
    66    49   105    1
    67    49   106    1
    68    49   107    1
    69    50   108    1
    70    51    59    1
    71    52   109    1
    72    52   110    1
    73    52   111    1
    74    53    54    1
    75    54    55    2
    76    54    56    1
    77    56   112    1
    78    56   113    1
    79    56   114    1
    80    57   115    1
    81    57   116    1
    82    57   117    1
    83    58   118    1
    84    58   119    1
    85    58   120    1
    86    59   121    1
    87    59   122    1
    88    59   123    1
    89    60    61    2
    90     1    47    1
    91     1    62    1
    92     2    63    1
    93     3    64    1
    94     4    65    1
    95     5     6    1
    96     7     8    2
    97     9    78    1
    98    15    79    1
    99    18    80    1
   100    18    81    1
   101    19    82    1
   102    19    83    1
   103    20    23    1
   104    21    84    1
   105    21    85    1
   106    22    86    1
   107    22    87    1
   108    27    45    1
   109    28    34    1
   110    32    58    1
   111    33    46    2
   112    36    51    1
   113    36    66    1
   114    37    52    1
   115    37    67    1
   116    38    53    1
   117    38    68    1
   118    42    48    1
   119    42    72    1
   120    43    44    2
   121    60    73    1
   122    61    74    1
   123    39    69    1
   124    39    57    1
   125    40    70    1
   126    40    50    1
   127    41    71    1
   128    41    49    1
