@<TRIPOS>MOLECULE
*****
 123 128 0 0 0
SMALL
GASTEIGER

@<TRIPOS>ATOM
     1 C         1.460167   -4.145315   -3.037913 C.3        1 UNL1     0.0009
     2 C         1.03627   -5.866   -3.582513 C.2        1 UNL1     -0.0787
     3 C         1.126039   -7.299353   -3.399512 C.2        1 UNL1     -0.0649
     4 C         0.326325   -8.511591   -4.269738 C.2        1 UNL1     -0.0542
     5 C         -0.093864   -9.864505   -4.257772 C.2        1 UNL1     0.0115
     6 C         0.033913   -11.213326   -3.49772 C.3        1 UNL1     -0.0348
     7 C         -1.235659   -10.332461   -5.284568 C.2        1 UNL1     0.2441
     8 O         -0.99409   -10.953438   -6.31051 O.2        1 UNL1     -0.2702
     9 N         -2.549522   -10.211428   -4.799523 N.am        1 UNL1     -0.2772
     10 C         -3.04795   -8.957894   -5.070713 C.2        1 UNL1     0.1049
     11 C         -2.716012   -8.003134   -4.22073 C.2        1 UNL1     0.0801
     12 C         -3.310047   -7.282646   -6.909784 C.ar        1 UNL1     0.0753
     13 C         -2.746409   -6.323021   -6.009762 C.ar        1 UNL1     0.0305
     14 C         -2.553662   -6.623827   -4.592929 C.2        1 UNL1     0.0924
     15 N         -2.139039   -8.08697   -3.009697 N.pl3        1 UNL1     -0.3170
     16 C         -2.152699   -6.772575   -2.424521 C.3        1 UNL1     0.1275
     17 N         -2.142899   -5.83304   -3.605581 N.2        1 UNL1     -0.2557
     18 C         -3.50953   -6.591677   -1.750735 C.3        1 UNL1     0.0016
     19 C         -3.713566   -7.723672   -0.756478 C.3        1 UNL1     0.0026
     20 N         -2.634356   -7.688092   0.220798 N.3        1 UNL1     -0.3018
     21 C         -1.285191   -7.793099   -0.338754 C.3        1 UNL1     0.0026
     22 C         -1.100305   -6.643821   -1.331161 C.3        1 UNL1     0.0016
     23 C         -2.891163   -8.52585   1.375291 C.3        1 UNL1     0.0012
     24 C         -4.24562   -9.237948   1.233452 C.3        1 UNL1     -0.0339
     25 C         -4.147341   -10.451505   0.294474 C.3        1 UNL1     -0.0615
     26 C         -4.772917   -9.631563   2.602322 C.3        1 UNL1     -0.0615
     27 C         -3.6025   -6.949037   -8.230123 C.ar        1 UNL1     0.1347
     28 C         -3.413011   -5.681712   -8.751689 C.ar        1 UNL1     0.0342
     29 C         -2.811701   -4.766827   -7.861421 C.ar        1 UNL1     0.1435
     30 C         -2.479914   -5.097038   -6.546849 C.ar        1 UNL1     0.0774
     31 O         -2.662682   -3.463555   -8.184348 O.3        1 UNL1     -0.4436
     32 C         -2.481279   -2.796612   -6.926114 C.3        1 UNL1     0.3143
     33 C         -1.970061   -3.865372   -5.981328 C.2        1 UNL1     0.2504
     34 C         -3.932417   -5.184958   -10.072125 C.3        1 UNL1     -0.0327
     35 O         -1.42088   -1.84793   -7.095846 O.2        1 UNL1     -0.4528
     36 C         -2.173974   0.995006   -4.696126 C.3        1 UNL1     0.0854
     37 C         -2.37601   0.951904   -3.132526 C.3        1 UNL1     0.0236
     38 C         -1.420408   1.934683   -2.300233 C.3        1 UNL1     0.1131
     39 C         0.139952   1.918295   -2.559612 C.3        1 UNL1     0.0200
     40 C         0.953785   0.471656   -2.72498 C.3        1 UNL1     0.0661
     41 C         0.847906   -0.854031   -1.671911 C.3        1 UNL1     0.0091
     42 C         0.973728   -2.653225   -2.00728 C.3        1 UNL1     0.0661
     43 C         -3.656069   -8.6194   -6.366077 C.2        1 UNL1     0.2131
     44 O         -4.468442   -9.365898   -6.88137 O.2        1 UNL1     -0.2851
     45 O         -4.106644   -7.95414   -9.052951 O.3        1 UNL1     -0.5056
     46 O         -1.278877   -3.732311   -4.996232 O.2        1 UNL1     -0.2836
     47 C         2.934321   -3.814487   -3.394853 C.3        1 UNL1     -0.0566
     48 O         1.913774   -2.911511   -0.889819 O.3        1 UNL1     -0.3909
     49 C         -0.341172   -0.65763   -0.758119 C.3        1 UNL1     -0.0577
     50 O         0.918538   0.027283   -4.066254 O.3        1 UNL1     -0.3910
     51 O         -1.074955   1.749511   -5.154723 O.3        1 UNL1     -0.3753
     52 C         -2.728576   -0.486488   -2.630853 C.3        1 UNL1     -0.0564
     53 O         -1.85937   2.138401   -0.879621 O.3        1 UNL1     -0.4608
     54 C         -1.343167   3.066157   -0.013173 C.2        1 UNL1     0.3042
     55 O         -1.246507   2.973324   1.209888 O.2        1 UNL1     -0.2512
     56 C         -0.799675   4.289221   -0.695408 C.3        1 UNL1     0.0332
     57 C         0.46687   3.081392   -3.607708 C.3        1 UNL1     -0.0567
     58 C         -3.886988   -2.350426   -6.460894 C.3        1 UNL1     0.0210
     59 C         -1.048694   3.103782   -4.706252 C.3        1 UNL1     0.0372
     60 C         -2.085866   -0.336272   -5.355745 C.2        1 UNL1     -0.0208
     61 C         -1.24381   -0.785348   -6.287419 C.2        1 UNL1     0.0882
     62 H         0.844603   -3.754913   -3.85729 H        1 UNL1     0.0365
     63 H         0.490457   -5.65881   -4.50535 H        1 UNL1     0.0576
     64 H         1.623444   -7.735401   -2.530284 H        1 UNL1     0.0615
     65 H         -0.062875   -7.988654   -5.147544 H        1 UNL1     0.0622
     66 H         -3.092048   1.461469   -5.080311 H        1 UNL1     0.0645
     67 H         -3.362866   1.421358   -2.976682 H        1 UNL1     0.0362
     68 H         -1.770469   2.903539   -2.687917 H        1 UNL1     0.0741
     69 H         0.63799   2.375325   -1.714929 H        1 UNL1     0.0359
     70 H         1.99382   0.819868   -2.5762 H        1 UNL1     0.0600
     71 H         1.687948   -0.624641   -0.987318 H        1 UNL1     0.0348
     72 H         1.43753   -2.151024   -2.868673 H        1 UNL1     0.0602
     73 H         -2.920866   -0.92505   -5.067016 H        1 UNL1     0.0628
     74 H         -0.333941   -0.269669   -6.596369 H        1 UNL1     0.1022
     75 H         -0.742655   -11.935531   -3.847571 H        1 UNL1     0.0279
     76 H         0.95624   -11.769745   -3.648649 H        1 UNL1     0.0279
     77 H         -0.21686   -11.125469   -2.430436 H        1 UNL1     0.0279
     78 H         -2.553258   -10.330472   -3.788637 H        1 UNL1     0.1553
     79 H         -2.116419   -8.926452   -2.460433 H        1 UNL1     0.1484
     80 H         -3.53499   -5.613735   -1.255006 H        1 UNL1     0.0317
     81 H         -4.316766   -6.588945   -2.491014 H        1 UNL1     0.0317
     82 H         -3.761862   -8.70176   -1.257402 H        1 UNL1     0.0428
     83 H         -4.687564   -7.576261   -0.288882 H        1 UNL1     0.0428
     84 H         -0.491407   -7.68365   0.406725 H        1 UNL1     0.0428
     85 H         -1.101733   -8.782272   -0.780563 H        1 UNL1     0.0428
     86 H         -0.065596   -6.672944   -1.618419 H        1 UNL1     0.0317
     87 H         -1.192608   -5.681993   -0.812062 H        1 UNL1     0.0317
     88 H         -2.100641   -9.285815   1.428429 H        1 UNL1     0.0429
     89 H         -2.843798   -7.946858   2.306579 H        1 UNL1     0.0429
     90 H         -4.979249   -8.535457   0.820525 H        1 UNL1     0.0308
     91 H         -3.488086   -10.245471   -0.554075 H        1 UNL1     0.0233
     92 H         -3.776495   -11.327121   0.832413 H        1 UNL1     0.0233
     93 H         -5.121001   -10.737773   -0.121303 H        1 UNL1     0.0233
     94 H         -5.612918   -8.987068   2.883142 H        1 UNL1     0.0233
     95 H         -5.132539   -10.664131   2.581443 H        1 UNL1     0.0233
     96 H         -3.99809   -9.543067   3.368991 H        1 UNL1     0.0233
     97 H         -3.436081   -4.272166   -10.387866 H        1 UNL1     0.0280
     98 H         -3.769969   -5.91029   -10.88006 H        1 UNL1     0.0280
     99 H         -5.012527   -4.980515   -9.990511 H        1 UNL1     0.0280
     100 H         -3.552558   -8.18025   -9.779233 H        1 UNL1     0.2922
     101 H         3.480519   -4.736536   -3.592716 H        1 UNL1     0.0236
     102 H         3.429273   -3.198925   -2.644461 H        1 UNL1     0.0236
     103 H         3.014078   -3.235749   -4.330211 H        1 UNL1     0.0236
     104 H         2.491782   -2.128285   -0.803604 H        1 UNL1     0.2098
     105 H         -1.202813   -0.197194   -1.234967 H        1 UNL1     0.0234
     106 H         -0.644843   -1.548274   -0.208152 H        1 UNL1     0.0234
     107 H         0.0   0.0   0.0 H        1 UNL1     0.0234
     108 H         1.538992   -0.723336   -4.139574 H        1 UNL1     0.2098
     109 H         -2.311116   -0.693909   -1.635657 H        1 UNL1     0.0234
     110 H         -3.805039   -0.688846   -2.626097 H        1 UNL1     0.0234
     111 H         -2.315461   -1.258764   -3.293328 H        1 UNL1     0.0234
     112 H         0.0193   4.008999   -1.364812 H        1 UNL1     0.0342
     113 H         -1.573116   4.836552   -1.232122 H        1 UNL1     0.0342
     114 H         -0.391462   4.958591   0.074313 H        1 UNL1     0.0342
     115 H         -0.28952   3.139399   -4.402502 H        1 UNL1     0.0234
     116 H         0.54836   4.073368   -3.158941 H        1 UNL1     0.0234
     117 H         1.381698   2.898058   -4.197132 H        1 UNL1     0.0234
     118 H         -4.690139   -2.899244   -6.983151 H        1 UNL1     0.0309
     119 H         -4.032233   -2.445806   -5.380149 H        1 UNL1     0.0309
     120 H         -4.097428   -1.303153   -6.703875 H        1 UNL1     0.0309
     121 H         -0.008874   3.367754   -4.515334 H        1 UNL1     0.0524
     122 H         -1.434749   3.803642   -5.465985 H        1 UNL1     0.0524
     123 H         -1.635295   3.210429   -3.798166 H        1 UNL1     0.0524
@<TRIPOS>BOND
     1     1     2    1
     2     1    42    1
     3     2     3    2
     4     3     4    1
     5     4     5    2
     6     5     7    1
     7     6    75    1
     8     6    76    1
     9     6    77    1
    10     7     9   am
    11     9    10    1
    12    10    11    2
    13    10    43    1
    14    11    14    1
    15    11    15    1
    16    12    13   ar
    17    12    27   ar
    18    12    43    1
    19    13    14    1
    20    13    30   ar
    21    14    17    2
    22    15    16    1
    23    16    17    1
    24    16    18    1
    25    16    22    1
    26    18    19    1
    27    19    20    1
    28    20    21    1
    29    21    22    1
    30    23    24    1
    31    23    88    1
    32    23    89    1
    33    24    25    1
    34    24    26    1
    35    24    90    1
    36    25    91    1
    37    25    92    1
    38    25    93    1
    39    26    94    1
    40    26    95    1
    41    26    96    1
    42    27    28   ar
    43    28    29   ar
    44    29    30   ar
    45    29    31    1
    46    30    33    1
    47    31    32    1
    48    32    33    1
    49    32    35    1
    50    34    97    1
    51    34    98    1
    52    34    99    1
    53    35    61    1
    54    36    37    1
    55    36    60    1
    56    37    38    1
    57    38    39    1
    58    39    40    1
    59    40    41    1
    60    41    42    1
    61    45   100    1
    62    47   101    1
    63    47   102    1
    64    47   103    1
    65    48   104    1
    66    49   105    1
    67    49   106    1
    68    49   107    1
    69    50   108    1
    70    51    59    1
    71    52   109    1
    72    52   110    1
    73    52   111    1
    74    53    54    1
    75    54    55    2
    76    54    56    1
    77    56   112    1
    78    56   113    1
    79    56   114    1
    80    57   115    1
    81    57   116    1
    82    57   117    1
    83    58   118    1
    84    58   119    1
    85    58   120    1
    86    59   121    1
    87    59   122    1
    88    59   123    1
    89    60    61    2
    90     1    47    1
    91     1    62    1
    92     2    63    1
    93     3    64    1
    94     4    65    1
    95     5     6    1
    96     7     8    2
    97     9    78    1
    98    15    79    1
    99    18    80    1
   100    18    81    1
   101    19    82    1
   102    19    83    1
   103    20    23    1
   104    21    84    1
   105    21    85    1
   106    22    86    1
   107    22    87    1
   108    27    45    1
   109    28    34    1
   110    32    58    1
   111    33    46    2
   112    36    51    1
   113    36    66    1
   114    37    52    1
   115    37    67    1
   116    38    53    1
   117    38    68    1
   118    42    48    1
   119    42    72    1
   120    43    44    2
   121    60    73    1
   122    61    74    1
   123    39    69    1
   124    39    57    1
   125    40    70    1
   126    40    50    1
   127    41    71    1
   128    41    49    1
