@<TRIPOS>MOLECULE
*****
 123 128 0 0 0
SMALL
GASTEIGER

@<TRIPOS>ATOM
     1 C         3.812745   -1.462602   1.601161 C.3        1 UNL1     0.0009
     2 C         4.259598   -2.900968   2.682116 C.2        1 UNL1     -0.0787
     3 C         4.394297   -3.488993   3.998219 C.2        1 UNL1     -0.0649
     4 C         4.793749   -5.087424   4.387854 C.2        1 UNL1     -0.0542
     5 C         4.746657   -6.083685   5.393997 C.2        1 UNL1     0.0115
     6 C         4.436241   -6.340762   6.89429 C.3        1 UNL1     -0.0348
     7 C         4.94859   -7.620334   4.97576 C.2        1 UNL1     0.2441
     8 O         5.998154   -8.224572   5.148492 O.2        1 UNL1     -0.2702
     9 N         3.764718   -8.299653   4.639422 N.am        1 UNL1     -0.2772
     10 C         3.484254   -8.142201   3.301561 C.2        1 UNL1     0.1049
     11 C         2.862508   -7.026819   2.96455 C.2        1 UNL1     0.0801
     12 C         4.51313   -8.301391   1.027049 C.ar        1 UNL1     0.0753
     13 C         3.989262   -6.991719   0.78429 C.ar        1 UNL1     0.0305
     14 C         3.035534   -6.367537   1.698538 C.2        1 UNL1     0.0924
     15 N         2.265686   -6.103185   3.737356 N.pl3        1 UNL1     -0.3170
     16 C         1.59004   -5.174822   2.870234 C.3        1 UNL1     0.1275
     17 N         2.378347   -5.216927   1.583952 N.2        1 UNL1     -0.2557
     18 C         0.222506   -5.769825   2.548481 C.3        1 UNL1     0.0016
     19 C         -0.504154   -6.052536   3.853712 C.3        1 UNL1     0.0026
     20 N         -0.636402   -4.805914   4.594977 N.3        1 UNL1     -0.3018
     21 C         0.624664   -4.126118   4.898221 C.3        1 UNL1     0.0026
     22 C         1.335741   -3.84769   3.5728 C.3        1 UNL1     0.0016
     23 C         -1.56696   -4.903958   5.701816 C.3        1 UNL1     0.0012
     24 C         -1.639348   -6.349595   6.218198 C.3        1 UNL1     -0.0339
     25 C         -1.248706   -7.357541   5.124808 C.3        1 UNL1     -0.0615
     26 C         -0.773365   -6.504325   7.456307 C.3        1 UNL1     -0.0615
     27 C         5.326297   -8.938129   0.092468 C.ar        1 UNL1     0.1347
     28 C         5.650734   -8.383761   -1.132876 C.ar        1 UNL1     0.0342
     29 C         5.16403   -7.073933   -1.329428 C.ar        1 UNL1     0.1435
     30 C         4.378306   -6.409312   -0.387018 C.ar        1 UNL1     0.0774
     31 O         5.302261   -6.44125   -2.515013 O.3        1 UNL1     -0.4436
     32 C         4.314542   -5.399839   -2.487661 C.3        1 UNL1     0.3143
     33 C         4.04307   -5.149831   -1.017963 C.2        1 UNL1     0.2504
     34 C         6.303105   -9.10257   -2.280842 C.3        1 UNL1     -0.0327
     35 O         4.93089   -4.214466   -3.005598 O.2        1 UNL1     -0.4528
     36 C         2.145278   -2.224551   -4.645321 C.3        1 UNL1     0.0854
     37 C         0.800223   -1.690376   -4.018418 C.3        1 UNL1     0.0236
     38 C         0.559601   -0.112961   -4.178439 C.3        1 UNL1     0.1131
     39 C         1.696164   0.901756   -3.753183 C.3        1 UNL1     0.0200
     40 C         2.538735   0.679035   -2.330894 C.3        1 UNL1     0.0661
     41 C         1.85469   0.395052   -0.804772 C.3        1 UNL1     0.0091
     42 C         2.476638   -0.587845   0.613853 C.3        1 UNL1     0.0661
     43 C         4.088901   -8.995793   2.268054 C.2        1 UNL1     0.2131
     44 O         4.128056   -10.204543   2.409928 O.2        1 UNL1     -0.2851
     45 O         5.831965   -10.192939   0.425921 O.3        1 UNL1     -0.5056
     46 O         3.658141   -4.133103   -0.485097 O.2        1 UNL1     -0.2836
     47 C         4.920194   -0.376495   1.6637 C.3        1 UNL1     -0.0566
     48 O         2.197265   0.469328   1.615578 O.3        1 UNL1     -0.3909
     49 C         0.395649   0.038605   -0.982645 C.3        1 UNL1     -0.0577
     50 O         3.643947   -0.178703   -2.532182 O.3        1 UNL1     -0.3910
     51 O         3.042667   -1.24071   -5.108119 O.3        1 UNL1     -0.3753
     52 C         0.42118   -2.460671   -2.711543 C.3        1 UNL1     -0.0564
     53 O         -0.85281   0.310496   -3.898962 O.3        1 UNL1     -0.4608
     54 C         -1.230991   1.514367   -3.364544 C.2        1 UNL1     0.3042
     55 O         -0.545254   2.529628   -3.25119 O.2        1 UNL1     -0.2512
     56 C         -2.670403   1.556863   -2.936757 C.3        1 UNL1     0.0332
     57 C         2.533554   1.265969   -5.066309 C.3        1 UNL1     -0.0567
     58 C         3.040441   -5.988222   -3.137276 C.3        1 UNL1     0.0210
     59 C         4.028168   -0.834554   -4.159599 C.3        1 UNL1     0.0372
     60 C         2.926565   -3.140708   -3.770445 C.2        1 UNL1     -0.0208
     61 C         4.232648   -3.175565   -3.502719 C.2        1 UNL1     0.0882
     62 H         4.02992   -2.0807   0.721672 H        1 UNL1     0.0365
     63 H         4.628619   -3.608761   1.936916 H        1 UNL1     0.0576
     64 H         4.074633   -2.958211   4.897771 H        1 UNL1     0.0615
     65 H         5.17098   -5.498404   3.447496 H        1 UNL1     0.0622
     66 H         1.827505   -2.828673   -5.506774 H        1 UNL1     0.0645
     67 H         0.015685   -2.1001   -4.678104 H        1 UNL1     0.0362
     68 H         0.504041   -0.04574   -5.275671 H        1 UNL1     0.0741
     69 H         1.255807   1.880523   -3.617133 H        1 UNL1     0.0359
     70 H         2.986499   1.684594   -2.215052 H        1 UNL1     0.0600
     71 H         1.77998   1.434709   -0.429952 H        1 UNL1     0.0348
     72 H         3.352445   -0.378935   -0.017524 H        1 UNL1     0.0602
     73 H         2.294216   -3.923047   -3.430845 H        1 UNL1     0.0628
     74 H         4.937025   -2.385168   -3.764184 H        1 UNL1     0.1022
     75 H         4.803907   -7.34884   7.203541 H        1 UNL1     0.0279
     76 H         4.924558   -5.683515   7.610279 H        1 UNL1     0.0279
     77 H         3.358885   -6.431608   7.096158 H        1 UNL1     0.0279
     78 H         2.985057   -7.908428   5.163969 H        1 UNL1     0.1553
     79 H         1.978551   -6.270444   4.684199 H        1 UNL1     0.1484
     80 H         -0.33683   -5.063111   1.92361 H        1 UNL1     0.0317
     81 H         0.324129   -6.691397   1.96536 H        1 UNL1     0.0317
     82 H         0.01535   -6.815545   4.451913 H        1 UNL1     0.0428
     83 H         -1.475931   -6.477883   3.601168 H        1 UNL1     0.0428
     84 H         0.493296   -3.154431   5.384409 H        1 UNL1     0.0428
     85 H         1.23744   -4.698903   5.607968 H        1 UNL1     0.0428
     86 H         2.183065   -3.236069   3.821698 H        1 UNL1     0.0317
     87 H         0.720706   -3.18756   2.949056 H        1 UNL1     0.0317
     88 H         -1.201602   -4.260908   6.513169 H        1 UNL1     0.0429
     89 H         -2.561267   -4.533583   5.420835 H        1 UNL1     0.0429
     90 H         -2.664839   -6.564721   6.541156 H        1 UNL1     0.0308
     91 H         -1.837255   -7.205505   4.215085 H        1 UNL1     0.0233
     92 H         -0.186605   -7.273013   4.883135 H        1 UNL1     0.0233
     93 H         -1.409371   -8.396333   5.437749 H        1 UNL1     0.0233
     94 H         -0.88511   -7.511608   7.871913 H        1 UNL1     0.0233
     95 H         0.279254   -6.361817   7.196218 H        1 UNL1     0.0233
     96 H         -1.047498   -5.779673   8.228123 H        1 UNL1     0.0233
     97 H         5.691868   -9.921008   -2.649322 H        1 UNL1     0.0280
     98 H         6.470833   -8.441694   -3.141287 H        1 UNL1     0.0280
     99 H         7.272382   -9.514489   -1.955387 H        1 UNL1     0.0280
     100 H         5.219688   -10.758235   0.863162 H        1 UNL1     0.2922
     101 H         5.457957   -0.344761   0.716356 H        1 UNL1     0.0236
     102 H         5.592901   -0.498584   2.511959 H        1 UNL1     0.0236
     103 H         4.500558   0.636546   1.781368 H        1 UNL1     0.0236
     104 H         2.839913   1.190956   1.469881 H        1 UNL1     0.2098
     105 H         -0.180015   0.769781   -1.54461 H        1 UNL1     0.0234
     106 H         0.215859   -0.963553   -1.371595 H        1 UNL1     0.0234
     107 H         0.0   -0.0   0.0 H        1 UNL1     0.0234
     108 H         3.303743   -1.000392   -2.935738 H        1 UNL1     0.2098
     109 H         -0.501566   -3.046331   -2.826672 H        1 UNL1     0.0234
     110 H         1.224158   -3.110032   -2.34644 H        1 UNL1     0.0234
     111 H         0.234399   -1.772877   -1.87608 H        1 UNL1     0.0234
     112 H         -3.319927   1.57493   -3.817176 H        1 UNL1     0.0342
     113 H         -2.926818   0.727727   -2.279012 H        1 UNL1     0.0342
     114 H         -2.834843   2.488341   -2.377764 H        1 UNL1     0.0342
     115 H         2.832523   0.366821   -5.622492 H        1 UNL1     0.0234
     116 H         2.005902   1.921854   -5.761613 H        1 UNL1     0.0234
     117 H         3.516238   1.719165   -4.849774 H        1 UNL1     0.0234
     118 H         3.263882   -6.526348   -4.075093 H        1 UNL1     0.0309
     119 H         2.483866   -6.651541   -2.467622 H        1 UNL1     0.0309
     120 H         2.33338   -5.213326   -3.453041 H        1 UNL1     0.0309
     121 H         4.56746   -1.726552   -3.842016 H        1 UNL1     0.0524
     122 H         4.764823   -0.138241   -4.593796 H        1 UNL1     0.0524
     123 H         3.554325   -0.359055   -3.30551 H        1 UNL1     0.0524
@<TRIPOS>BOND
     1     1     2    1
     2     1    42    1
     3     2     3    2
     4     3     4    1
     5     4     5    2
     6     5     7    1
     7     6    75    1
     8     6    76    1
     9     6    77    1
    10     7     9   am
    11     9    10    1
    12    10    11    2
    13    10    43    1
    14    11    14    1
    15    11    15    1
    16    12    13   ar
    17    12    27   ar
    18    12    43    1
    19    13    14    1
    20    13    30   ar
    21    14    17    2
    22    15    16    1
    23    16    17    1
    24    16    18    1
    25    16    22    1
    26    18    19    1
    27    19    20    1
    28    20    21    1
    29    21    22    1
    30    23    24    1
    31    23    88    1
    32    23    89    1
    33    24    25    1
    34    24    26    1
    35    24    90    1
    36    25    91    1
    37    25    92    1
    38    25    93    1
    39    26    94    1
    40    26    95    1
    41    26    96    1
    42    27    28   ar
    43    28    29   ar
    44    29    30   ar
    45    29    31    1
    46    30    33    1
    47    31    32    1
    48    32    33    1
    49    32    35    1
    50    34    97    1
    51    34    98    1
    52    34    99    1
    53    35    61    1
    54    36    37    1
    55    36    60    1
    56    37    38    1
    57    38    39    1
    58    39    40    1
    59    40    41    1
    60    41    42    1
    61    45   100    1
    62    47   101    1
    63    47   102    1
    64    47   103    1
    65    48   104    1
    66    49   105    1
    67    49   106    1
    68    49   107    1
    69    50   108    1
    70    51    59    1
    71    52   109    1
    72    52   110    1
    73    52   111    1
    74    53    54    1
    75    54    55    2
    76    54    56    1
    77    56   112    1
    78    56   113    1
    79    56   114    1
    80    57   115    1
    81    57   116    1
    82    57   117    1
    83    58   118    1
    84    58   119    1
    85    58   120    1
    86    59   121    1
    87    59   122    1
    88    59   123    1
    89    60    61    2
    90     1    47    1
    91     1    62    1
    92     2    63    1
    93     3    64    1
    94     4    65    1
    95     5     6    1
    96     7     8    2
    97     9    78    1
    98    15    79    1
    99    18    80    1
   100    18    81    1
   101    19    82    1
   102    19    83    1
   103    20    23    1
   104    21    84    1
   105    21    85    1
   106    22    86    1
   107    22    87    1
   108    27    45    1
   109    28    34    1
   110    32    58    1
   111    33    46    2
   112    36    51    1
   113    36    66    1
   114    37    52    1
   115    37    67    1
   116    38    53    1
   117    38    68    1
   118    42    48    1
   119    42    72    1
   120    43    44    2
   121    60    73    1
   122    61    74    1
   123    39    69    1
   124    39    57    1
   125    40    70    1
   126    40    50    1
   127    41    71    1
   128    41    49    1
