@<TRIPOS>MOLECULE
*****
 123 128 0 0 0
SMALL
GASTEIGER

@<TRIPOS>ATOM
     1 C         5.002294   2.183954   0.468141 C.3        1 UNL1     0.0009
     2 C         6.390683   3.040899   -0.412233 C.2        1 UNL1     -0.0787
     3 C         7.696388   3.001544   -1.036437 C.2        1 UNL1     -0.0649
     4 C         8.488255   4.2431   -1.871806 C.2        1 UNL1     -0.0542
     5 C         9.508315   4.546538   -2.806943 C.2        1 UNL1     0.0115
     6 C         10.712242   3.953936   -3.589697 C.3        1 UNL1     -0.0348
     7 C         9.495471   5.978006   -3.533389 C.2        1 UNL1     0.2441
     8 O         10.233989   6.896804   -3.206395 O.2        1 UNL1     -0.2702
     9 N         8.767167   6.022192   -4.73496 N.am        1 UNL1     -0.2772
     10 C         7.446958   6.319181   -4.485628 C.2        1 UNL1     0.1049
     11 C         6.678549   5.304395   -4.133523 C.2        1 UNL1     0.0801
     12 C         5.972742   7.915465   -3.246315 C.ar        1 UNL1     0.0753
     13 C         5.299221   6.765598   -2.724028 C.ar        1 UNL1     0.0305
     14 C         5.547309   5.426908   -3.25451 C.2        1 UNL1     0.0924
     15 N         6.919134   3.982761   -4.177474 N.pl3        1 UNL1     -0.3170
     16 C         5.69592   3.302159   -3.844636 C.3        1 UNL1     0.1275
     17 N         4.950022   4.274634   -2.963925 N.2        1 UNL1     -0.2557
     18 C         4.880946   3.182926   -5.128888 C.3        1 UNL1     0.0016
     19 C         5.726308   2.477904   -6.177646 C.3        1 UNL1     0.0026
     20 N         6.101014   1.164891   -5.67107 N.3        1 UNL1     -0.3018
     21 C         6.836281   1.173695   -4.404707 C.3        1 UNL1     0.0026
     22 C         5.966841   1.882385   -3.364646 C.3        1 UNL1     0.0016
     23 C         6.648268   0.29972   -6.69705 C.3        1 UNL1     0.0012
     24 C         5.549527   -0.129407   -7.682127 C.3        1 UNL1     -0.0339
     25 C         5.786228   -1.557077   -8.201537 C.3        1 UNL1     -0.0615
     26 C         4.183947   0.009692   -7.032032 C.3        1 UNL1     -0.0615
     27 C         5.643831   9.200101   -2.820113 C.ar        1 UNL1     0.1347
     28 C         4.635801   9.461903   -1.909407 C.ar        1 UNL1     0.0342
     29 C         4.019692   8.311649   -1.372297 C.ar        1 UNL1     0.1435
     30 C         4.363483   7.016867   -1.762896 C.ar        1 UNL1     0.0774
     31 O         2.946712   8.40272   -0.55656 O.3        1 UNL1     -0.4436
     32 C         2.337754   7.103884   -0.61196 C.3        1 UNL1     0.3143
     33 C         3.448264   6.163389   -1.034393 C.2        1 UNL1     0.2504
     34 C         4.060394   10.814931   -1.595839 C.3        1 UNL1     -0.0327
     35 O         1.974891   6.746071   0.727276 O.2        1 UNL1     -0.4528
     36 C         -1.077323   4.511002   0.416566 C.3        1 UNL1     0.0854
     37 C         -1.245728   3.159513   -0.378821 C.3        1 UNL1     0.0236
     38 C         -1.76064   1.919154   0.497605 C.3        1 UNL1     0.1131
     39 C         -1.033094   1.561861   1.856018 C.3        1 UNL1     0.0200
     40 C         0.632367   1.566416   1.949069 C.3        1 UNL1     0.0661
     41 C         1.689853   0.791911   0.87228 C.3        1 UNL1     0.0091
     42 C         3.376976   1.255608   0.320914 C.3        1 UNL1     0.0661
     43 C         6.97152   7.701133   -4.322773 C.2        1 UNL1     0.2131
     44 O         7.315429   8.569198   -5.104392 O.2        1 UNL1     -0.2851
     45 O         6.378609   10.26159   -3.344307 O.3        1 UNL1     -0.5056
     46 O         3.56291   4.980591   -0.802663 O.2        1 UNL1     -0.2836
     47 C         5.388883   1.909664   1.946416 C.3        1 UNL1     -0.0566
     48 O         3.941659   -0.099325   0.531641 O.3        1 UNL1     -0.3909
     49 C         0.917624   0.386673   -0.363413 C.3        1 UNL1     -0.0577
     50 O         1.113819   2.860196   2.252484 O.3        1 UNL1     -0.3910
     51 O         -1.228053   4.425329   1.815627 O.3        1 UNL1     -0.3753
     52 C         -0.155981   2.997769   -1.488433 C.3        1 UNL1     -0.0564
     53 O         -2.243967   0.761388   -0.325983 O.3        1 UNL1     -0.4608
     54 C         -2.068478   -0.562176   -0.017255 C.2        1 UNL1     0.3042
     55 O         -2.856194   -1.302985   0.569722 O.2        1 UNL1     -0.2512
     56 C         -0.774898   -1.131966   -0.525884 C.3        1 UNL1     0.0332
     57 C         -1.847574   2.265704   3.038982 C.3        1 UNL1     -0.0567
     58 C         1.279859   7.164459   -1.738334 C.3        1 UNL1     0.0210
     59 C         -2.426339   5.007838   2.326173 C.3        1 UNL1     0.0372
     60 C         0.199624   5.233296   0.165848 C.2        1 UNL1     -0.0208
     61 C         1.044516   5.816394   1.017257 C.2        1 UNL1     0.0882
     62 H         4.441567   3.126422   0.461016 H        1 UNL1     0.0365
     63 H         6.032252   4.072353   -0.402213 H        1 UNL1     0.0576
     64 H         8.241613   2.063757   -1.164472 H        1 UNL1     0.0615
     65 H         7.914199   5.137485   -1.614865 H        1 UNL1     0.0622
     66 H         -1.872985   5.161537   0.026987 H        1 UNL1     0.0645
     67 H         -2.11507   3.340866   -1.034501 H        1 UNL1     0.0362
     68 H         -2.75206   2.298525   0.788613 H        1 UNL1     0.0741
     69 H         -1.282974   0.544912   2.127647 H        1 UNL1     0.0359
     70 H         0.772624   0.992542   2.885048 H        1 UNL1     0.0600
     71 H         1.807171   -0.183245   1.384399 H        1 UNL1     0.0348
     72 H         3.199314   1.810946   1.253304 H        1 UNL1     0.0602
     73 H         0.332477   5.354889   -0.880485 H        1 UNL1     0.0628
     74 H         1.011706   5.692999   2.100278 H        1 UNL1     0.1022
     75 H         11.373371   3.367596   -2.906947 H        1 UNL1     0.0279
     76 H         10.476792   3.229993   -4.366574 H        1 UNL1     0.0279
     77 H         11.405783   4.726823   -3.952118 H        1 UNL1     0.0279
     78 H         8.796074   5.110248   -5.186182 H        1 UNL1     0.1553
     79 H         7.637437   3.56582   -4.740621 H        1 UNL1     0.1484
     80 H         3.959527   2.627064   -4.917293 H        1 UNL1     0.0317
     81 H         4.57517   4.170229   -5.491361 H        1 UNL1     0.0317
     82 H         6.615465   3.066764   -6.447011 H        1 UNL1     0.0428
     83 H         5.126815   2.405063   -7.085585 H        1 UNL1     0.0428
     84 H         7.035549   0.174031   -4.006239 H        1 UNL1     0.0428
     85 H         7.833909   1.620944   -4.51436 H        1 UNL1     0.0428
     86 H         6.47422   1.75321   -2.426633 H        1 UNL1     0.0317
     87 H         5.02835   1.332498   -3.223383 H        1 UNL1     0.0317
     88 H         7.411186   0.864404   -7.248758 H        1 UNL1     0.0429
     89 H         7.148917   -0.57267   -6.257664 H        1 UNL1     0.0429
     90 H         5.545562   0.557045   -8.537101 H        1 UNL1     0.0308
     91 H         6.688305   -1.611466   -8.818304 H        1 UNL1     0.0233
     92 H         5.877059   -2.260402   -7.370458 H        1 UNL1     0.0233
     93 H         4.955939   -1.919639   -8.819603 H        1 UNL1     0.0233
     94 H         3.402052   -0.331679   -7.719012 H        1 UNL1     0.0233
     95 H         4.134366   -0.608168   -6.131058 H        1 UNL1     0.0233
     96 H         3.975497   1.048159   -6.759813 H        1 UNL1     0.0233
     97 H         3.422341   11.181396   -2.394477 H        1 UNL1     0.0280
     98 H         3.434363   10.799532   -0.694117 H        1 UNL1     0.0280
     99 H         4.878592   11.538583   -1.447599 H        1 UNL1     0.0280
     100 H         6.145145   10.502994   -4.223421 H        1 UNL1     0.2922
     101 H         4.87485   2.615969   2.597998 H        1 UNL1     0.0236
     102 H         6.465315   1.906915   2.114548 H        1 UNL1     0.0236
     103 H         5.048876   0.917077   2.286062 H        1 UNL1     0.0236
     104 H         3.242299   -0.651134   0.933353 H        1 UNL1     0.2098
     105 H         0.688715   1.206981   -1.039066 H        1 UNL1     0.0234
     106 H         1.347795   -0.448758   -0.915624 H        1 UNL1     0.0234
     107 H         0.0   -0.0   0.0 H        1 UNL1     0.0234
     108 H         2.07354   2.862387   2.071653 H        1 UNL1     0.2098
     109 H         -0.201886   3.80122   -2.236812 H        1 UNL1     0.0234
     110 H         0.860621   2.929044   -1.086513 H        1 UNL1     0.0234
     111 H         -0.284569   2.06205   -2.048648 H        1 UNL1     0.0234
     112 H         -0.952878   -2.111092   -0.980838 H        1 UNL1     0.0342
     113 H         -0.278525   -0.460685   -1.225054 H        1 UNL1     0.0342
     114 H         -0.10288   -1.276055   0.331317 H        1 UNL1     0.0342
     115 H         -2.388708   1.533635   3.654155 H        1 UNL1     0.0234
     116 H         -1.227941   2.864167   3.709762 H        1 UNL1     0.0234
     117 H         -2.677417   2.900994   2.684428 H        1 UNL1     0.0234
     118 H         0.251408   7.209235   -1.339223 H        1 UNL1     0.0309
     119 H         1.43337   8.001031   -2.427379 H        1 UNL1     0.0309
     120 H         1.271739   6.260054   -2.356469 H        1 UNL1     0.0309
     121 H         -2.166471   5.97643   2.752382 H        1 UNL1     0.0524
     122 H         -3.175838   5.182954   1.536474 H        1 UNL1     0.0524
     123 H         -2.8605   4.367187   3.088514 H        1 UNL1     0.0524
@<TRIPOS>BOND
     1     1     2    1
     2     1    42    1
     3     2     3    2
     4     3     4    1
     5     4     5    2
     6     5     7    1
     7     6    75    1
     8     6    76    1
     9     6    77    1
    10     7     9   am
    11     9    10    1
    12    10    11    2
    13    10    43    1
    14    11    14    1
    15    11    15    1
    16    12    13   ar
    17    12    27   ar
    18    12    43    1
    19    13    14    1
    20    13    30   ar
    21    14    17    2
    22    15    16    1
    23    16    17    1
    24    16    18    1
    25    16    22    1
    26    18    19    1
    27    19    20    1
    28    20    21    1
    29    21    22    1
    30    23    24    1
    31    23    88    1
    32    23    89    1
    33    24    25    1
    34    24    26    1
    35    24    90    1
    36    25    91    1
    37    25    92    1
    38    25    93    1
    39    26    94    1
    40    26    95    1
    41    26    96    1
    42    27    28   ar
    43    28    29   ar
    44    29    30   ar
    45    29    31    1
    46    30    33    1
    47    31    32    1
    48    32    33    1
    49    32    35    1
    50    34    97    1
    51    34    98    1
    52    34    99    1
    53    35    61    1
    54    36    37    1
    55    36    60    1
    56    37    38    1
    57    38    39    1
    58    39    40    1
    59    40    41    1
    60    41    42    1
    61    45   100    1
    62    47   101    1
    63    47   102    1
    64    47   103    1
    65    48   104    1
    66    49   105    1
    67    49   106    1
    68    49   107    1
    69    50   108    1
    70    51    59    1
    71    52   109    1
    72    52   110    1
    73    52   111    1
    74    53    54    1
    75    54    55    2
    76    54    56    1
    77    56   112    1
    78    56   113    1
    79    56   114    1
    80    57   115    1
    81    57   116    1
    82    57   117    1
    83    58   118    1
    84    58   119    1
    85    58   120    1
    86    59   121    1
    87    59   122    1
    88    59   123    1
    89    60    61    2
    90     1    47    1
    91     1    62    1
    92     2    63    1
    93     3    64    1
    94     4    65    1
    95     5     6    1
    96     7     8    2
    97     9    78    1
    98    15    79    1
    99    18    80    1
   100    18    81    1
   101    19    82    1
   102    19    83    1
   103    20    23    1
   104    21    84    1
   105    21    85    1
   106    22    86    1
   107    22    87    1
   108    27    45    1
   109    28    34    1
   110    32    58    1
   111    33    46    2
   112    36    51    1
   113    36    66    1
   114    37    52    1
   115    37    67    1
   116    38    53    1
   117    38    68    1
   118    42    48    1
   119    42    72    1
   120    43    44    2
   121    60    73    1
   122    61    74    1
   123    39    69    1
   124    39    57    1
   125    40    70    1
   126    40    50    1
   127    41    71    1
   128    41    49    1
