@<TRIPOS>MOLECULE
*****
 123 128 0 0 0
SMALL
GASTEIGER

@<TRIPOS>ATOM
     1 C         2.191914   -1.795963   -3.371614 C.3        1 UNL1     0.0009
     2 C         1.963545   -1.516843   -5.190123 C.2        1 UNL1     -0.0787
     3 C         1.542244   -1.993013   -6.490821 C.2        1 UNL1     -0.0649
     4 C         1.462006   -1.123604   -7.941354 C.2        1 UNL1     -0.0542
     5 C         0.890787   -1.077014   -9.236968 C.2        1 UNL1     0.0115
     6 C         0.065278   -1.884514   -10.276103 C.3        1 UNL1     -0.0348
     7 C         0.902593   0.311965   -10.041697 C.2        1 UNL1     0.2441
     8 O         1.694355   0.552248   -10.942753 O.2        1 UNL1     -0.2702
     9 N         -0.219548   1.129631   -9.821758 N.am        1 UNL1     -0.2772
     10 C         -0.012886   1.94615   -8.733682 C.2        1 UNL1     0.1049
     11 C         -0.252737   1.410868   -7.550395 C.2        1 UNL1     0.0801
     12 C         1.643602   3.52655   -7.725853 C.ar        1 UNL1     0.0753
     13 C         1.502878   2.777772   -6.514185 C.ar        1 UNL1     0.0305
     14 C         0.451074   1.776685   -6.351143 C.2        1 UNL1     0.0924
     15 N         -0.86834   0.259267   -7.232003 N.pl3        1 UNL1     -0.3170
     16 C         -1.023811   0.224895   -5.802002 C.3        1 UNL1     0.1275
     17 N         0.113432   1.067361   -5.27793 N.2        1 UNL1     -0.2557
     18 C         -2.303366   0.985684   -5.467873 C.3        1 UNL1     0.0016
     19 C         -3.455418   0.362363   -6.239777 C.3        1 UNL1     0.0026
     20 N         -3.566224   -1.04012   -5.863225 N.3        1 UNL1     -0.3018
     21 C         -2.361917   -1.841751   -6.089941 C.3        1 UNL1     0.0026
     22 C         -1.21858   -1.200354   -5.301725 C.3        1 UNL1     0.0016
     23 C         -4.805022   -1.647174   -6.307644 C.3        1 UNL1     0.0012
     24 C         -5.039799   -1.361946   -7.799381 C.3        1 UNL1     -0.0339
     25 C         -6.221385   -2.178056   -8.348813 C.3        1 UNL1     -0.0615
     26 C         -5.238702   0.127564   -8.019785 C.3        1 UNL1     -0.0615
     27 C         2.569575   4.561731   -7.831166 C.ar        1 UNL1     0.1347
     28 C         3.378912   4.964451   -6.783864 C.ar        1 UNL1     0.0342
     29 C         3.257571   4.181219   -5.616393 C.ar        1 UNL1     0.1435
     30 C         2.360052   3.11821   -5.508268 C.ar        1 UNL1     0.0774
     31 O         3.897763   4.514532   -4.474437 O.3        1 UNL1     -0.4436
     32 C         3.186571   3.814541   -3.442404 C.3        1 UNL1     0.3143
     33 C         2.509431   2.654916   -4.144519 C.2        1 UNL1     0.2504
     34 C         4.208939   6.217219   -6.742295 C.3        1 UNL1     -0.0327
     35 O         4.163659   3.253224   -2.557263 O.2        1 UNL1     -0.4528
     36 C         2.523532   3.13657   0.863915 C.3        1 UNL1     0.0854
     37 C         1.185142   2.427355   1.303516 C.3        1 UNL1     0.0236
     38 C         1.333416   1.404671   2.529843 C.3        1 UNL1     0.1131
     39 C         2.45076   0.285704   2.488316 C.3        1 UNL1     0.0200
     40 C         2.722955   -0.585052   1.091844 C.3        1 UNL1     0.0661
     41 C         1.538365   -1.360926   0.157833 C.3        1 UNL1     0.0091
     42 C         1.454281   -1.657317   -1.650615 C.3        1 UNL1     0.0661
     43 C         0.708675   3.223212   -8.837679 C.2        1 UNL1     0.2131
     44 O         0.454604   4.005285   -9.735759 O.2        1 UNL1     -0.2851
     45 O         2.675144   5.210302   -9.059844 O.3        1 UNL1     -0.5056
     46 O         2.186285   1.581712   -3.686631 O.2        1 UNL1     -0.2836
     47 C         3.41445   -2.718202   -3.116929 C.3        1 UNL1     -0.0566
     48 O         1.084744   -3.08699   -1.514261 O.3        1 UNL1     -0.3909
     49 C         0.175773   -0.864662   0.587437 C.3        1 UNL1     -0.0577
     50 O         3.636258   0.089887   0.250383 O.3        1 UNL1     -0.3910
     51 O         3.701718   2.662536   1.475962 O.3        1 UNL1     -0.3753
     52 C         0.255267   2.131032   0.081847 C.3        1 UNL1     -0.0564
     53 O         0.023124   1.017634   3.150859 O.3        1 UNL1     -0.4608
     54 C         -0.139557   0.512457   4.414292 C.2        1 UNL1     0.3042
     55 O         0.185544   1.040068   5.4772 O.2        1 UNL1     -0.2512
     56 C         -0.849554   -0.811028   4.445982 C.3        1 UNL1     0.0332
     57 C         3.724165   0.846188   3.277284 C.3        1 UNL1     -0.0567
     58 C         2.101056   4.785915   -2.923156 C.3        1 UNL1     0.0210
     59 C         4.777199   3.599504   1.511967 C.3        1 UNL1     0.0372
     60 C         2.776575   3.148413   -0.60271 C.2        1 UNL1     -0.0208
     61 C         3.889608   2.88858   -1.290015 C.2        1 UNL1     0.0882
     62 H         2.553034   -0.764669   -3.278143 H        1 UNL1     0.0365
     63 H         2.403295   -0.523402   -5.300418 H        1 UNL1     0.0576
     64 H         1.062265   -2.96615   -6.616243 H        1 UNL1     0.0615
     65 H         2.032626   -0.214664   -7.732299 H        1 UNL1     0.0622
     66 H         2.387288   4.187731   1.154678 H        1 UNL1     0.0645
     67 H         0.591389   3.236544   1.763116 H        1 UNL1     0.0362
     68 H         1.651615   2.105683   3.316516 H        1 UNL1     0.0741
     69 H         2.197457   -0.485766   3.203214 H        1 UNL1     0.0359
     70 H         3.302318   -1.432584   1.505472 H        1 UNL1     0.0600
     71 H         1.557793   -2.36799   0.618704 H        1 UNL1     0.0348
     72 H         2.510637   -1.449899   -1.426104 H        1 UNL1     0.0602
     73 H         1.923989   3.538242   -1.101086 H        1 UNL1     0.0628
     74 H         4.785034   2.43408   -0.864716 H        1 UNL1     0.1022
     75 H         0.197311   -1.457011   -11.299257 H        1 UNL1     0.0279
     76 H         0.349134   -2.924816   -10.418462 H        1 UNL1     0.0279
     77 H         -1.019963   -1.775889   -10.134142 H        1 UNL1     0.0279
     78 H         -1.031143   0.549507   -9.619654 H        1 UNL1     0.1553
     79 H         -1.47464   -0.239476   -7.856974 H        1 UNL1     0.1484
     80 H         -2.474731   0.939141   -4.385638 H        1 UNL1     0.0317
     81 H         -2.206489   2.04605   -5.724564 H        1 UNL1     0.0317
     82 H         -3.323584   0.471239   -7.326367 H        1 UNL1     0.0428
     83 H         -4.357434   0.921077   -5.988271 H        1 UNL1     0.0428
     84 H         -2.444709   -2.870442   -5.72559 H        1 UNL1     0.0428
     85 H         -2.141644   -1.954794   -7.160464 H        1 UNL1     0.0428
     86 H         -0.39275   -1.882601   -5.382541 H        1 UNL1     0.0317
     87 H         -1.451194   -1.209281   -4.229854 H        1 UNL1     0.0317
     88 H         -4.722534   -2.733012   -6.168197 H        1 UNL1     0.0429
     89 H         -5.654987   -1.308692   -5.701208 H        1 UNL1     0.0429
     90 H         -4.138163   -1.630302   -8.362632 H        1 UNL1     0.0308
     91 H         -6.070805   -3.250468   -8.192729 H        1 UNL1     0.0233
     92 H         -7.155973   -1.873941   -7.871667 H        1 UNL1     0.0233
     93 H         -6.365844   -2.030549   -9.425943 H        1 UNL1     0.0233
     94 H         -5.471238   0.622112   -7.070477 H        1 UNL1     0.0233
     95 H         -4.321534   0.572418   -8.415854 H        1 UNL1     0.0233
     96 H         -6.056095   0.321713   -8.719888 H        1 UNL1     0.0233
     97 H         5.134188   6.111683   -7.300872 H        1 UNL1     0.0280
     98 H         3.686319   7.07481   -7.18576 H        1 UNL1     0.0280
     99 H         4.462016   6.457713   -5.696729 H        1 UNL1     0.0280
     100 H         1.920683   5.71886   -9.300217 H        1 UNL1     0.2922
     101 H         3.107343   -3.761872   -3.180922 H        1 UNL1     0.0236
     102 H         3.928656   -2.499801   -2.181582 H        1 UNL1     0.0236
     103 H         4.187392   -2.605683   -3.895449 H        1 UNL1     0.0236
     104 H         0.769289   -3.224158   -0.599579 H        1 UNL1     0.2098
     105 H         -0.635846   -1.563672   0.40177 H        1 UNL1     0.0234
     106 H         0.128174   -0.493809   1.611219 H        1 UNL1     0.0234
     107 H         0.0   0.0   0.0 H        1 UNL1     0.0234
     108 H         3.812576   -0.493031   -0.513087 H        1 UNL1     0.2098
     109 H         0.814672   1.749962   -0.783926 H        1 UNL1     0.0234
     110 H         -0.563212   1.443453   0.320741 H        1 UNL1     0.0234
     111 H         -0.253473   3.038753   -0.26911 H        1 UNL1     0.0234
     112 H         -0.377695   -1.468958   5.182069 H        1 UNL1     0.0342
     113 H         -1.914067   -0.700003   4.646805 H        1 UNL1     0.0342
     114 H         -0.744351   -1.280553   3.458236 H        1 UNL1     0.0342
     115 H         4.634491   0.279063   3.038823 H        1 UNL1     0.0234
     116 H         3.935079   1.900546   3.087826 H        1 UNL1     0.0234
     117 H         3.663315   0.702006   4.369735 H        1 UNL1     0.0234
     118 H         2.445197   5.361808   -2.046275 H        1 UNL1     0.0309
     119 H         1.743711   5.480486   -3.690018 H        1 UNL1     0.0309
     120 H         1.213428   4.263608   -2.549771 H        1 UNL1     0.0309
     121 H         4.487294   4.408587   2.181815 H        1 UNL1     0.0524
     122 H         5.705333   3.155994   1.909335 H        1 UNL1     0.0524
     123 H         4.97042   3.988335   0.51619 H        1 UNL1     0.0524
@<TRIPOS>BOND
     1     1     2    1
     2     1    42    1
     3     2     3    2
     4     3     4    1
     5     4     5    2
     6     5     7    1
     7     6    75    1
     8     6    76    1
     9     6    77    1
    10     7     9   am
    11     9    10    1
    12    10    11    2
    13    10    43    1
    14    11    14    1
    15    11    15    1
    16    12    13   ar
    17    12    27   ar
    18    12    43    1
    19    13    14    1
    20    13    30   ar
    21    14    17    2
    22    15    16    1
    23    16    17    1
    24    16    18    1
    25    16    22    1
    26    18    19    1
    27    19    20    1
    28    20    21    1
    29    21    22    1
    30    23    24    1
    31    23    88    1
    32    23    89    1
    33    24    25    1
    34    24    26    1
    35    24    90    1
    36    25    91    1
    37    25    92    1
    38    25    93    1
    39    26    94    1
    40    26    95    1
    41    26    96    1
    42    27    28   ar
    43    28    29   ar
    44    29    30   ar
    45    29    31    1
    46    30    33    1
    47    31    32    1
    48    32    33    1
    49    32    35    1
    50    34    97    1
    51    34    98    1
    52    34    99    1
    53    35    61    1
    54    36    37    1
    55    36    60    1
    56    37    38    1
    57    38    39    1
    58    39    40    1
    59    40    41    1
    60    41    42    1
    61    45   100    1
    62    47   101    1
    63    47   102    1
    64    47   103    1
    65    48   104    1
    66    49   105    1
    67    49   106    1
    68    49   107    1
    69    50   108    1
    70    51    59    1
    71    52   109    1
    72    52   110    1
    73    52   111    1
    74    53    54    1
    75    54    55    2
    76    54    56    1
    77    56   112    1
    78    56   113    1
    79    56   114    1
    80    57   115    1
    81    57   116    1
    82    57   117    1
    83    58   118    1
    84    58   119    1
    85    58   120    1
    86    59   121    1
    87    59   122    1
    88    59   123    1
    89    60    61    2
    90     1    47    1
    91     1    62    1
    92     2    63    1
    93     3    64    1
    94     4    65    1
    95     5     6    1
    96     7     8    2
    97     9    78    1
    98    15    79    1
    99    18    80    1
   100    18    81    1
   101    19    82    1
   102    19    83    1
   103    20    23    1
   104    21    84    1
   105    21    85    1
   106    22    86    1
   107    22    87    1
   108    27    45    1
   109    28    34    1
   110    32    58    1
   111    33    46    2
   112    36    51    1
   113    36    66    1
   114    37    52    1
   115    37    67    1
   116    38    53    1
   117    38    68    1
   118    42    48    1
   119    42    72    1
   120    43    44    2
   121    60    73    1
   122    61    74    1
   123    39    69    1
   124    39    57    1
   125    40    70    1
   126    40    50    1
   127    41    71    1
   128    41    49    1
