@<TRIPOS>MOLECULE
*****
 123 128 0 0 0
SMALL
GASTEIGER

@<TRIPOS>ATOM
     1 C         5.166928   1.759094   0.45576 C.3        1 UNL1     0.0009
     2 C         6.596367   2.567399   -0.404694 C.2        1 UNL1     -0.0787
     3 C         7.873979   2.471237   -1.078866 C.2        1 UNL1     -0.0649
     4 C         8.743992   3.707541   -1.841091 C.2        1 UNL1     -0.0542
     5 C         9.757187   4.001519   -2.786654 C.2        1 UNL1     0.0115
     6 C         10.880813   3.377668   -3.65935 C.3        1 UNL1     -0.0348
     7 C         9.845621   5.484546   -3.394766 C.2        1 UNL1     0.2441
     8 O         10.670407   6.308038   -3.023125 O.2        1 UNL1     -0.2702
     9 N         9.087234   5.689272   -4.560564 N.am        1 UNL1     -0.2772
     10 C         7.805887   6.073689   -4.238543 C.2        1 UNL1     0.1049
     11 C         6.963942   5.100843   -3.940346 C.2        1 UNL1     0.0801
     12 C         6.513798   7.678786   -2.820269 C.ar        1 UNL1     0.0753
     13 C         5.759916   6.549711   -2.366992 C.ar        1 UNL1     0.0305
     14 C         5.875079   5.243802   -3.012274 C.2        1 UNL1     0.0924
     15 N         7.088073   3.771997   -4.099364 N.pl3        1 UNL1     -0.3170
     16 C         5.821492   3.17059   -3.776352 C.3        1 UNL1     0.1275
     17 N         5.189775   4.125258   -2.792855 N.2        1 UNL1     -0.2557
     18 C         4.960148   3.227158   -5.034361 C.3        1 UNL1     0.0016
     19 C         5.70883   2.54376   -6.167512 C.3        1 UNL1     0.0026
     20 N         5.984197   1.166444   -5.782542 N.3        1 UNL1     -0.3018
     21 C         6.756086   1.008363   -4.548214 C.3        1 UNL1     0.0026
     22 C         5.983477   1.698138   -3.422523 C.3        1 UNL1     0.0016
     23 C         6.4229   0.347014   -6.89462 C.3        1 UNL1     0.0012
     24 C         5.261435   0.094643   -7.86882 C.3        1 UNL1     -0.0339
     25 C         5.346619   1.016593   -9.096341 C.3        1 UNL1     -0.0615
     26 C         5.227654   -1.369629   -8.270749 C.3        1 UNL1     -0.0615
     27 C         6.310279   8.946448   -2.280148 C.ar        1 UNL1     0.1347
     28 C         5.357106   9.214797   -1.313969 C.ar        1 UNL1     0.0342
     29 C         4.660817   8.079308   -0.848125 C.ar        1 UNL1     0.1435
     30 C         4.879373   6.797363   -1.354161 C.ar        1 UNL1     0.0774
     31 O         3.625307   8.191445   0.012196 O.3        1 UNL1     -0.4436
     32 C         2.905086   6.957138   -0.124337 C.3        1 UNL1     0.3143
     33 C         3.91674   5.965628   -0.662553 C.2        1 UNL1     0.2504
     34 C         4.910567   10.580336   -0.871243 C.3        1 UNL1     -0.0327
     35 O         2.55406   6.520641   1.194565 O.2        1 UNL1     -0.4528
     36 C         -0.68781   4.58193   0.820719 C.3        1 UNL1     0.0854
     37 C         -0.996643   3.320146   -0.073734 C.3        1 UNL1     0.0236
     38 C         -1.5895   2.058484   0.71903 C.3        1 UNL1     0.1131
     39 C         -0.854071   1.529843   2.015931 C.3        1 UNL1     0.0200
     40 C         0.807637   1.387531   2.046136 C.3        1 UNL1     0.0661
     41 C         1.76069   0.619753   0.871479 C.3        1 UNL1     0.0091
     42 C         3.46378   0.985217   0.295874 C.3        1 UNL1     0.0661
     43 C         7.456757   7.472148   -3.947384 C.2        1 UNL1     0.2131
     44 O         7.85011   8.370502   -4.669167 O.2        1 UNL1     -0.2851
     45 O         7.117472   9.982806   -2.744734 O.3        1 UNL1     -0.5056
     46 O         3.935927   4.762217   -0.531073 O.2        1 UNL1     -0.2836
     47 C         5.573687   1.331373   1.891582 C.3        1 UNL1     -0.0566
     48 O         3.915606   -0.424964   0.375625 O.3        1 UNL1     -0.3909
     49 C         0.918716   0.384699   -0.36275 C.3        1 UNL1     -0.0577
     50 O         1.408083   2.60682   2.43411 O.3        1 UNL1     -0.3910
     51 O         -0.802263   4.392977   2.213066 O.3        1 UNL1     -0.3753
     52 C         0.040422   3.160892   -1.23308 C.3        1 UNL1     -0.0564
     53 O         -2.196073   1.017719   -0.176069 O.3        1 UNL1     -0.4608
     54 C         -2.394546   -0.297334   0.154348 C.2        1 UNL1     0.3042
     55 O         -1.720709   -1.265344   -0.195993 O.2        1 UNL1     -0.2512
     56 C         -3.54472   -0.51381   1.096128 C.3        1 UNL1     0.0332
     57 C         -1.567973   2.198318   3.281497 C.3        1 UNL1     -0.0567
     58 C         1.822222   7.199405   -1.201482 C.3        1 UNL1     0.0210
     59 C         -1.112801   5.571889   2.954415 C.3        1 UNL1     0.0372
     60 C         0.638402   5.213414   0.580825 C.2        1 UNL1     -0.0208
     61 C         1.556266   5.651008   1.443832 C.2        1 UNL1     0.0882
     62 H         4.689699   2.742408   0.545526 H        1 UNL1     0.0365
     63 H         6.328793   3.620757   -0.298337 H        1 UNL1     0.0576
     64 H         8.332017   1.505117   -1.302299 H        1 UNL1     0.0615
     65 H         8.257465   4.622238   -1.491659 H        1 UNL1     0.0622
     66 H         -1.435951   5.326806   0.514956 H        1 UNL1     0.0645
     67 H         -1.866841   3.627417   -0.679456 H        1 UNL1     0.0362
     68 H         -2.535047   2.49378   1.076774 H        1 UNL1     0.0741
     69 H         -1.182331   0.518244   2.214229 H        1 UNL1     0.0359
     70 H         0.926558   0.728032   2.927032 H        1 UNL1     0.0600
     71 H         1.809088   -0.401029   1.29882 H        1 UNL1     0.0348
     72 H         3.363489   1.473901   1.275897 H        1 UNL1     0.0602
     73 H         0.749005   5.410166   -0.456625 H        1 UNL1     0.0628
     74 H         1.546259   5.441058   2.513906 H        1 UNL1     0.1022
     75 H         10.876852   2.264814   -3.56675 H        1 UNL1     0.0279
     76 H         10.797906   3.523611   -4.734011 H        1 UNL1     0.0279
     77 H         11.888769   3.622085   -3.293311 H        1 UNL1     0.0279
     78 H         9.023415   4.818839   -5.084349 H        1 UNL1     0.1553
     79 H         7.750037   3.344856   -4.720883 H        1 UNL1     0.1484
     80 H         4.001131   2.734511   -4.833483 H        1 UNL1     0.0317
     81 H         4.729737   4.263283   -5.30456 H        1 UNL1     0.0317
     82 H         6.636792   3.076679   -6.422065 H        1 UNL1     0.0428
     83 H         5.07764   2.597075   -7.055098 H        1 UNL1     0.0428
     84 H         6.880477   -0.034138   -4.239137 H        1 UNL1     0.0428
     85 H         7.784751   1.378305   -4.659153 H        1 UNL1     0.0428
     86 H         6.506426   1.449407   -2.517733 H        1 UNL1     0.0317
     87 H         5.005812   1.218705   -3.290575 H        1 UNL1     0.0317
     88 H         7.214382   0.889972   -7.427581 H        1 UNL1     0.0429
     89 H         6.859649   -0.597678   -6.545935 H        1 UNL1     0.0429
     90 H         4.312579   0.285816   -7.35371 H        1 UNL1     0.0308
     91 H         6.361447   1.04277   -9.504436 H        1 UNL1     0.0233
     92 H         4.655138   0.687337   -9.875477 H        1 UNL1     0.0233
     93 H         5.071588   2.051868   -8.860968 H        1 UNL1     0.0233
     94 H         4.607019   -1.502008   -9.163567 H        1 UNL1     0.0233
     95 H         6.237676   -1.715358   -8.508001 H        1 UNL1     0.0233
     96 H         4.819754   -1.993733   -7.470699 H        1 UNL1     0.0233
     97 H         4.067328   10.531888   -0.188725 H        1 UNL1     0.0280
     98 H         5.701254   11.120373   -0.334186 H        1 UNL1     0.0280
     99 H         4.609874   11.173351   -1.750454 H        1 UNL1     0.0280
     100 H         6.650553   10.760429   -2.995556 H        1 UNL1     0.2922
     101 H         4.692104   1.000748   2.440357 H        1 UNL1     0.0236
     102 H         6.124385   2.10279   2.428825 H        1 UNL1     0.0236
     103 H         6.245661   0.456939   1.888488 H        1 UNL1     0.0236
     104 H         4.253363   -0.575764   1.280141 H        1 UNL1     0.2098
     105 H         0.700514   1.282713   -0.935262 H        1 UNL1     0.0234
     106 H         1.285242   -0.403073   -1.020778 H        1 UNL1     0.0234
     107 H         0.0   -0.0   0.0 H        1 UNL1     0.0234
     108 H         1.257468   3.247005   1.712136 H        1 UNL1     0.2098
     109 H         1.06941   3.062056   -0.860082 H        1 UNL1     0.0234
     110 H         -0.188221   2.32527   -1.903305 H        1 UNL1     0.0234
     111 H         0.046728   4.038032   -1.893787 H        1 UNL1     0.0234
     112 H         -3.634993   -1.577845   1.33493 H        1 UNL1     0.0342
     113 H         -3.450328   0.083262   2.001908 H        1 UNL1     0.0342
     114 H         -4.467773   -0.203324   0.587467 H        1 UNL1     0.0342
     115 H         -2.656065   2.046879   3.263839 H        1 UNL1     0.0234
     116 H         -1.201116   1.832679   4.242628 H        1 UNL1     0.0234
     117 H         -1.506293   3.300162   3.290259 H        1 UNL1     0.0234
     118 H         0.921128   7.680631   -0.782606 H        1 UNL1     0.0309
     119 H         2.183521   7.791392   -2.048369 H        1 UNL1     0.0309
     120 H         1.435924   6.266517   -1.626453 H        1 UNL1     0.0309
     121 H         -0.733279   5.434412   3.966551 H        1 UNL1     0.0524
     122 H         -0.626539   6.469095   2.536553 H        1 UNL1     0.0524
     123 H         -2.187262   5.730606   2.975324 H        1 UNL1     0.0524
@<TRIPOS>BOND
     1     1     2    1
     2     1    42    1
     3     2     3    2
     4     3     4    1
     5     4     5    2
     6     5     7    1
     7     6    75    1
     8     6    76    1
     9     6    77    1
    10     7     9   am
    11     9    10    1
    12    10    11    2
    13    10    43    1
    14    11    14    1
    15    11    15    1
    16    12    13   ar
    17    12    27   ar
    18    12    43    1
    19    13    14    1
    20    13    30   ar
    21    14    17    2
    22    15    16    1
    23    16    17    1
    24    16    18    1
    25    16    22    1
    26    18    19    1
    27    19    20    1
    28    20    21    1
    29    21    22    1
    30    23    24    1
    31    23    88    1
    32    23    89    1
    33    24    25    1
    34    24    26    1
    35    24    90    1
    36    25    91    1
    37    25    92    1
    38    25    93    1
    39    26    94    1
    40    26    95    1
    41    26    96    1
    42    27    28   ar
    43    28    29   ar
    44    29    30   ar
    45    29    31    1
    46    30    33    1
    47    31    32    1
    48    32    33    1
    49    32    35    1
    50    34    97    1
    51    34    98    1
    52    34    99    1
    53    35    61    1
    54    36    37    1
    55    36    60    1
    56    37    38    1
    57    38    39    1
    58    39    40    1
    59    40    41    1
    60    41    42    1
    61    45   100    1
    62    47   101    1
    63    47   102    1
    64    47   103    1
    65    48   104    1
    66    49   105    1
    67    49   106    1
    68    49   107    1
    69    50   108    1
    70    51    59    1
    71    52   109    1
    72    52   110    1
    73    52   111    1
    74    53    54    1
    75    54    55    2
    76    54    56    1
    77    56   112    1
    78    56   113    1
    79    56   114    1
    80    57   115    1
    81    57   116    1
    82    57   117    1
    83    58   118    1
    84    58   119    1
    85    58   120    1
    86    59   121    1
    87    59   122    1
    88    59   123    1
    89    60    61    2
    90     1    47    1
    91     1    62    1
    92     2    63    1
    93     3    64    1
    94     4    65    1
    95     5     6    1
    96     7     8    2
    97     9    78    1
    98    15    79    1
    99    18    80    1
   100    18    81    1
   101    19    82    1
   102    19    83    1
   103    20    23    1
   104    21    84    1
   105    21    85    1
   106    22    86    1
   107    22    87    1
   108    27    45    1
   109    28    34    1
   110    32    58    1
   111    33    46    2
   112    36    51    1
   113    36    66    1
   114    37    52    1
   115    37    67    1
   116    38    53    1
   117    38    68    1
   118    42    48    1
   119    42    72    1
   120    43    44    2
   121    60    73    1
   122    61    74    1
   123    39    69    1
   124    39    57    1
   125    40    70    1
   126    40    50    1
   127    41    71    1
   128    41    49    1
