@<TRIPOS>MOLECULE
*****
 123 128 0 0 0
SMALL
GASTEIGER

@<TRIPOS>ATOM
     1 C         -3.568003   0.632749   -1.972679 C.3        1 UNL1     0.0009
     2 C         -4.039482   2.086153   -3.022613 C.2        1 UNL1     -0.0787
     3 C         -4.688251   3.372119   -3.169027 C.2        1 UNL1     -0.0649
     4 C         -4.681539   4.393266   -4.519424 C.2        1 UNL1     -0.0542
     5 C         -4.883062   5.720354   -4.97253 C.2        1 UNL1     0.0115
     6 C         -5.407963   7.123021   -4.559824 C.3        1 UNL1     -0.0348
     7 C         -4.29221   6.151506   -6.401512 C.2        1 UNL1     0.2441
     8 O         -4.984431   6.251015   -7.405232 O.2        1 UNL1     -0.2702
     9 N         -2.981636   6.65889   -6.368178 N.am        1 UNL1     -0.2772
     10 C         -2.067832   5.636417   -6.481461 C.2        1 UNL1     0.1049
     11 C         -1.776096   4.990415   -5.367103 C.2        1 UNL1     0.0801
     12 C         -1.513258   3.613725   -7.84473 C.ar        1 UNL1     0.0753
     13 C         -1.412981   2.903127   -6.606343 C.ar        1 UNL1     0.0305
     14 C         -1.412127   3.600134   -5.322119 C.2        1 UNL1     0.0924
     15 N         -2.064881   5.296129   -4.090518 N.pl3        1 UNL1     -0.3170
     16 C         -1.371913   4.359081   -3.246722 C.3        1 UNL1     0.1275
     17 N         -1.230477   3.119195   -4.095487 N.2        1 UNL1     -0.2557
     18 C         0.041636   4.895146   -3.041264 C.3        1 UNL1     0.0016
     19 C         -0.049729   6.302656   -2.473674 C.3        1 UNL1     0.0026
     20 N         -0.779363   6.2527   -1.214243 N.3        1 UNL1     -0.3018
     21 C         -2.12991   5.69319   -1.299914 C.3        1 UNL1     0.0026
     22 C         -2.013957   4.277683   -1.868062 C.3        1 UNL1     0.0016
     23 C         -0.665666   7.477478   -0.44767 C.3        1 UNL1     0.0012
     24 C         0.810653   7.811162   -0.181412 C.3        1 UNL1     -0.0339
     25 C         1.695767   6.557175   -0.271686 C.3        1 UNL1     -0.0615
     26 C         1.279539   8.896184   -1.135169 C.3        1 UNL1     -0.0615
     27 C         -1.392069   2.955626   -9.066342 C.ar        1 UNL1     0.1347
     28 C         -1.130962   1.601375   -9.175332 C.ar        1 UNL1     0.0342
     29 C         -1.084902   0.913732   -7.943995 C.ar        1 UNL1     0.1435
     30 C         -1.240503   1.553595   -6.713717 C.ar        1 UNL1     0.0774
     31 O         -0.731085   -0.388303   -7.876731 O.3        1 UNL1     -0.4436
     32 C         -0.342969   -0.588461   -6.509187 C.3        1 UNL1     0.3143
     33 C         -1.047835   0.505678   -5.733148 C.2        1 UNL1     0.2504
     34 C         -0.740688   0.877153   -10.433619 C.3        1 UNL1     -0.0327
     35 O         -0.910017   -1.833595   -6.083335 O.2        1 UNL1     -0.4528
     36 C         1.464759   -3.217294   -3.465338 C.3        1 UNL1     0.0854
     37 C         1.953545   -2.560755   -2.117166 C.3        1 UNL1     0.0236
     38 C         1.70419   -3.447353   -0.804341 C.3        1 UNL1     0.1131
     39 C         0.268436   -4.049569   -0.524668 C.3        1 UNL1     0.0200
     40 C         -1.096983   -3.118425   -0.750584 C.3        1 UNL1     0.0661
     41 C         -1.344606   -1.554084   -0.143023 C.3        1 UNL1     0.0091
     42 C         -2.289489   -0.143411   -0.837718 C.3        1 UNL1     0.0661
     43 C         -1.661308   5.089088   -7.784352 C.2        1 UNL1     0.2131
     44 O         -1.371099   5.832833   -8.703786 O.2        1 UNL1     -0.2851
     45 O         -1.54779   3.713113   -10.225394 O.3        1 UNL1     -0.5056
     46 O         -1.392725   0.50394   -4.572587 O.2        1 UNL1     -0.2836
     47 C         -4.801034   -0.278041   -1.727567 C.3        1 UNL1     -0.0566
     48 O         -2.991752   0.159484   0.432792 O.3        1 UNL1     -0.3909
     49 C         -0.021695   -1.003454   0.340925 C.3        1 UNL1     -0.0577
     50 O         -1.536852   -3.191077   -2.091837 O.3        1 UNL1     -0.3910
     51 O         0.720492   -4.407632   -3.336522 O.3        1 UNL1     -0.3753
     52 C         1.759281   -1.009243   -2.121638 C.3        1 UNL1     -0.0564
     53 O         2.476272   -2.976996   0.393566 O.3        1 UNL1     -0.4608
     54 C         3.599334   -3.576184   0.901143 C.2        1 UNL1     0.3042
     55 O         3.834036   -3.847407   2.078085 O.2        1 UNL1     -0.2512
     56 C         4.596218   -3.973607   -0.150042 C.3        1 UNL1     0.0332
     57 C         0.253445   -5.544564   -1.092946 C.3        1 UNL1     -0.0567
     58 C         1.182296   -0.341098   -6.446689 C.3        1 UNL1     0.0210
     59 C         -0.161207   -4.683887   -4.423792 C.3        1 UNL1     0.0372
     60 C         0.683392   -2.316787   -4.356245 C.2        1 UNL1     -0.0208
     61 C         -0.444886   -2.536274   -5.032677 C.2        1 UNL1     0.0882
     62 H         -3.032698   0.210302   -2.831572 H        1 UNL1     0.0365
     63 H         -3.665129   1.763772   -3.996471 H        1 UNL1     0.0576
     64 H         -5.128369   3.891759   -2.314991 H        1 UNL1     0.0615
     65 H         -4.301651   3.75831   -5.324408 H        1 UNL1     0.0622
     66 H         2.390369   -3.451022   -4.010007 H        1 UNL1     0.0645
     67 H         3.054679   -2.583679   -2.191597 H        1 UNL1     0.0362
     68 H         2.342004   -4.312202   -1.042565 H        1 UNL1     0.0741
     69 H         0.201565   -4.318686   0.521043 H        1 UNL1     0.0359
     70 H         -1.833855   -3.720113   -0.184852 H        1 UNL1     0.0600
     71 H         -1.842976   -1.795917   0.816196 H        1 UNL1     0.0348
     72 H         -2.666178   -1.041555   -1.348364 H        1 UNL1     0.0602
     73 H         1.229705   -1.419879   -4.512272 H        1 UNL1     0.0628
     74 H         -1.092412   -3.40167   -4.887636 H        1 UNL1     0.1022
     75 H         -4.889532   7.479769   -3.63733 H        1 UNL1     0.0279
     76 H         -5.224987   7.934859   -5.260187 H        1 UNL1     0.0279
     77 H         -6.455746   7.103677   -4.22594 H        1 UNL1     0.0279
     78 H         -2.816064   7.120269   -5.476107 H        1 UNL1     0.1553
     79 H         -2.325407   6.215131   -3.78312 H        1 UNL1     0.1484
     80 H         0.583395   4.224369   -2.363531 H        1 UNL1     0.0317
     81 H         0.597891   4.903615   -3.984747 H        1 UNL1     0.0317
     82 H         -0.527686   6.996553   -3.180764 H        1 UNL1     0.0428
     83 H         0.969049   6.666475   -2.336647 H        1 UNL1     0.0428
     84 H         -2.625621   5.593117   -0.329312 H        1 UNL1     0.0428
     85 H         -2.804232   6.339598   -1.878502 H        1 UNL1     0.0428
     86 H         -2.998046   3.853674   -1.792079 H        1 UNL1     0.0317
     87 H         -1.415249   3.651709   -1.195158 H        1 UNL1     0.0317
     88 H         -1.10716   8.29161   -1.037218 H        1 UNL1     0.0429
     89 H         -1.23289   7.415163   0.489958 H        1 UNL1     0.0429
     90 H         0.907213   8.234993   0.825194 H        1 UNL1     0.0308
     91 H         2.460506   6.552963   0.510782 H        1 UNL1     0.0233
     92 H         1.09145   5.650914   -0.18742 H        1 UNL1     0.0233
     93 H         2.22204   6.485657   -1.231247 H        1 UNL1     0.0233
     94 H         2.235147   8.612691   -1.589351 H        1 UNL1     0.0233
     95 H         0.550006   9.027714   -1.939186 H        1 UNL1     0.0233
     96 H         1.412048   9.851185   -0.619045 H        1 UNL1     0.0233
     97 H         -0.507757   -0.166987   -10.247219 H        1 UNL1     0.0280
     98 H         -1.547532   0.876807   -11.178106 H        1 UNL1     0.0280
     99 H         0.148819   1.356284   -10.87442 H        1 UNL1     0.0280
     100 H         -1.563354   4.643652   -10.085828 H        1 UNL1     0.2922
     101 H         -4.584719   -1.289742   -2.070094 H        1 UNL1     0.0236
     102 H         -5.71796   0.114785   -2.165651 H        1 UNL1     0.0236
     103 H         -5.027421   -0.388488   -0.653908 H        1 UNL1     0.0236
     104 H         -3.682797   0.822156   0.237109 H        1 UNL1     0.2098
     105 H         0.09063   -0.990004   1.422134 H        1 UNL1     0.0234
     106 H         0.855871   -1.451995   -0.124497 H        1 UNL1     0.0234
     107 H         0.0   0.0   0.0 H        1 UNL1     0.0234
     108 H         -1.81022   -2.291669   -2.356608 H        1 UNL1     0.2098
     109 H         1.013299   -0.681297   -1.384295 H        1 UNL1     0.0234
     110 H         2.693282   -0.458096   -1.967941 H        1 UNL1     0.0234
     111 H         1.394866   -0.649786   -3.093203 H        1 UNL1     0.0234
     112 H         4.783565   -5.050383   -0.09712 H        1 UNL1     0.0342
     113 H         4.276411   -3.681311   -1.149107 H        1 UNL1     0.0342
     114 H         5.542259   -3.456385   0.061268 H        1 UNL1     0.0342
     115 H         1.215884   -6.050798   -0.936018 H        1 UNL1     0.0234
     116 H         -0.524411   -6.176422   -0.659649 H        1 UNL1     0.0234
     117 H         0.161873   -5.596705   -2.191507 H        1 UNL1     0.0234
     118 H         1.758705   -1.214181   -6.799515 H        1 UNL1     0.0309
     119 H         1.497006   0.545626   -7.006045 H        1 UNL1     0.0309
     120 H         1.54321   -0.197375   -5.422388 H        1 UNL1     0.0309
     121 H         -1.107749   -4.185904   -4.215399 H        1 UNL1     0.0524
     122 H         0.218147   -4.288717   -5.380855 H        1 UNL1     0.0524
     123 H         -0.314512   -5.754974   -4.52056 H        1 UNL1     0.0524
@<TRIPOS>BOND
     1     1     2    1
     2     1    42    1
     3     2     3    2
     4     3     4    1
     5     4     5    2
     6     5     7    1
     7     6    75    1
     8     6    76    1
     9     6    77    1
    10     7     9   am
    11     9    10    1
    12    10    11    2
    13    10    43    1
    14    11    14    1
    15    11    15    1
    16    12    13   ar
    17    12    27   ar
    18    12    43    1
    19    13    14    1
    20    13    30   ar
    21    14    17    2
    22    15    16    1
    23    16    17    1
    24    16    18    1
    25    16    22    1
    26    18    19    1
    27    19    20    1
    28    20    21    1
    29    21    22    1
    30    23    24    1
    31    23    88    1
    32    23    89    1
    33    24    25    1
    34    24    26    1
    35    24    90    1
    36    25    91    1
    37    25    92    1
    38    25    93    1
    39    26    94    1
    40    26    95    1
    41    26    96    1
    42    27    28   ar
    43    28    29   ar
    44    29    30   ar
    45    29    31    1
    46    30    33    1
    47    31    32    1
    48    32    33    1
    49    32    35    1
    50    34    97    1
    51    34    98    1
    52    34    99    1
    53    35    61    1
    54    36    37    1
    55    36    60    1
    56    37    38    1
    57    38    39    1
    58    39    40    1
    59    40    41    1
    60    41    42    1
    61    45   100    1
    62    47   101    1
    63    47   102    1
    64    47   103    1
    65    48   104    1
    66    49   105    1
    67    49   106    1
    68    49   107    1
    69    50   108    1
    70    51    59    1
    71    52   109    1
    72    52   110    1
    73    52   111    1
    74    53    54    1
    75    54    55    2
    76    54    56    1
    77    56   112    1
    78    56   113    1
    79    56   114    1
    80    57   115    1
    81    57   116    1
    82    57   117    1
    83    58   118    1
    84    58   119    1
    85    58   120    1
    86    59   121    1
    87    59   122    1
    88    59   123    1
    89    60    61    2
    90     1    47    1
    91     1    62    1
    92     2    63    1
    93     3    64    1
    94     4    65    1
    95     5     6    1
    96     7     8    2
    97     9    78    1
    98    15    79    1
    99    18    80    1
   100    18    81    1
   101    19    82    1
   102    19    83    1
   103    20    23    1
   104    21    84    1
   105    21    85    1
   106    22    86    1
   107    22    87    1
   108    27    45    1
   109    28    34    1
   110    32    58    1
   111    33    46    2
   112    36    51    1
   113    36    66    1
   114    37    52    1
   115    37    67    1
   116    38    53    1
   117    38    68    1
   118    42    48    1
   119    42    72    1
   120    43    44    2
   121    60    73    1
   122    61    74    1
   123    39    69    1
   124    39    57    1
   125    40    70    1
   126    40    50    1
   127    41    71    1
   128    41    49    1
