@<TRIPOS>MOLECULE
*****
 123 128 0 0 0
SMALL
GASTEIGER

@<TRIPOS>ATOM
     1 C         -0.205166   -5.005598   -2.161783 C.3        1 UNL1     0.0009
     2 C         -0.22304   -5.969273   -3.745465 C.2        1 UNL1     -0.0787
     3 C         -0.933751   -6.767326   -4.722219 C.2        1 UNL1     -0.0649
     4 C         -0.364579   -7.341203   -6.209857 C.2        1 UNL1     -0.0542
     5 C         -0.738837   -7.833061   -7.484645 C.2        1 UNL1     0.0115
     6 C         -1.937685   -8.335464   -8.335338 C.3        1 UNL1     -0.0348
     7 C         0.344328   -7.824214   -8.669408 C.2        1 UNL1     0.2441
     8 O         0.945639   -8.827116   -9.028767 O.2        1 UNL1     -0.2702
     9 N         0.366035   -6.647908   -9.438813 N.am        1 UNL1     -0.2772
     10 C         1.214403   -5.721923   -8.876545 C.2        1 UNL1     0.1049
     11 C         0.713042   -4.993215   -7.895808 C.2        1 UNL1     0.0801
     12 C         3.521983   -5.451418   -7.949596 C.ar        1 UNL1     0.0753
     13 C         2.907167   -4.851072   -6.804959 C.ar        1 UNL1     0.0305
     14 C         1.492854   -4.483991   -6.80038 C.2        1 UNL1     0.0924
     15 N         -0.559452   -4.855163   -7.485652 N.pl3        1 UNL1     -0.3170
     16 C         -0.59074   -3.813732   -6.493334 C.3        1 UNL1     0.1275
     17 N         0.786763   -3.837413   -5.87718 N.2        1 UNL1     -0.2557
     18 C         -0.699921   -2.485184   -7.235454 C.3        1 UNL1     0.0016
     19 C         -1.923618   -2.530638   -8.136613 C.3        1 UNL1     0.0026
     20 N         -3.101547   -2.769761   -7.314219 N.3        1 UNL1     -0.3018
     21 C         -3.062775   -3.995606   -6.514113 C.3        1 UNL1     0.0026
     22 C         -1.828518   -3.926544   -5.613148 C.3        1 UNL1     0.0016
     23 C         -4.342667   -2.53507   -8.024983 C.3        1 UNL1     0.0012
     24 C         -4.104789   -1.620027   -9.236538 C.3        1 UNL1     -0.0339
     25 C         -4.310827   -2.374624   -10.560241 C.3        1 UNL1     -0.0615
     26 C         -4.997537   -0.394572   -9.146864 C.3        1 UNL1     -0.0615
     27 C         4.894084   -5.68747   -7.991295 C.ar        1 UNL1     0.1347
     28 C         5.756048   -5.331302   -6.969428 C.ar        1 UNL1     0.0342
     29 C         5.121922   -4.786464   -5.832679 C.ar        1 UNL1     0.1435
     30 C         3.744035   -4.577456   -5.762222 C.ar        1 UNL1     0.0774
     31 O         5.834817   -4.288809   -4.798693 O.3        1 UNL1     -0.4436
     32 C         4.916008   -3.432365   -4.103592 C.3        1 UNL1     0.3143
     33 C         3.538914   -3.942615   -4.47705 C.2        1 UNL1     0.2504
     34 C         7.257459   -5.321946   -7.045441 C.3        1 UNL1     -0.0327
     35 O         5.084816   -3.675184   -2.701524 O.2        1 UNL1     -0.4528
     36 C         4.24276   -0.403934   -0.970064 C.3        1 UNL1     0.0854
     37 C         2.914714   0.444395   -1.034502 C.3        1 UNL1     0.0236
     38 C         2.247351   0.76424   0.388196 C.3        1 UNL1     0.1131
     39 C         1.989612   -0.410009   1.416291 C.3        1 UNL1     0.0200
     40 C         1.357657   -1.863865   0.897279 C.3        1 UNL1     0.0661
     41 C         -0.018492   -2.05854   -0.075309 C.3        1 UNL1     0.0091
     42 C         -0.417917   -3.335829   -1.330058 C.3        1 UNL1     0.0661
     43 C         2.663388   -5.732499   -9.12691 C.2        1 UNL1     0.2131
     44 O         3.094147   -5.862462   -10.258411 O.2        1 UNL1     -0.2851
     45 O         5.406181   -6.317275   -9.123788 O.3        1 UNL1     -0.5056
     46 O         2.508937   -3.862759   -3.845682 O.2        1 UNL1     -0.2836
     47 C         -0.22413   -5.968594   -0.944302 C.3        1 UNL1     -0.0566
     48 O         -1.783355   -3.58484   -0.807862 O.3        1 UNL1     -0.3909
     49 C         -0.384578   -0.719835   -0.67643 C.3        1 UNL1     -0.0577
     50 O         2.385616   -2.729123   0.4587 O.3        1 UNL1     -0.3910
     51 O         4.582868   -0.920615   0.296742 O.3        1 UNL1     -0.3753
     52 C         2.058049   0.089379   -2.293485 C.3        1 UNL1     -0.0564
     53 O         1.207775   1.845314   0.334461 O.3        1 UNL1     -0.4608
     54 C         0.261588   2.087035   1.295831 C.2        1 UNL1     0.3042
     55 O         0.1205   3.110305   1.9643 O.2        1 UNL1     -0.2512
     56 C         -0.719203   0.962644   1.470493 C.3        1 UNL1     0.0332
     57 C         3.234185   -0.454171   2.419916 C.3        1 UNL1     -0.0567
     58 C         5.101851   -2.01703   -4.698418 C.3        1 UNL1     0.0210
     59 C         5.971172   -1.19481   0.479212 C.3        1 UNL1     0.0372
     60 C         4.310445   -1.539954   -1.929251 C.2        1 UNL1     -0.0208
     61 C         4.706888   -2.800619   -1.74953 C.2        1 UNL1     0.0882
     62 H         0.846611   -4.756635   -2.347508 H        1 UNL1     0.0365
     63 H         0.831483   -5.921133   -4.024989 H        1 UNL1     0.0576
     64 H         -2.00965   -6.940076   -4.646677 H        1 UNL1     0.0615
     65 H         0.717248   -7.194807   -6.149009 H        1 UNL1     0.0622
     66 H         5.032715   0.296315   -1.276118 H        1 UNL1     0.0645
     67 H         3.252202   1.447254   -1.349043 H        1 UNL1     0.0362
     68 H         3.04878   1.372365   0.834758 H        1 UNL1     0.0741
     69 H         1.260489   -0.081063   2.144702 H        1 UNL1     0.0359
     70 H         1.033961   -2.288111   1.866968 H        1 UNL1     0.0600
     71 H         -0.794988   -2.164582   0.707485 H        1 UNL1     0.0348
     72 H         0.37965   -3.763446   -0.70528 H        1 UNL1     0.0602
     73 H         4.098861   -1.184511   -2.907076 H        1 UNL1     0.0628
     74 H         4.886593   -3.257671   -0.775853 H        1 UNL1     0.1022
     75 H         -2.26107   -7.549467   -9.059676 H        1 UNL1     0.0279
     76 H         -1.748918   -9.188135   -8.983712 H        1 UNL1     0.0279
     77 H         -2.853009   -8.472452   -7.741101 H        1 UNL1     0.0279
     78 H         -0.564797   -6.23666   -9.461269 H        1 UNL1     0.1553
     79 H         -1.355098   -5.09385   -8.048599 H        1 UNL1     0.1484
     80 H         -0.771542   -1.671627   -6.503496 H        1 UNL1     0.0317
     81 H         0.200012   -2.293828   -7.829721 H        1 UNL1     0.0317
     82 H         -1.824807   -3.297459   -8.919004 H        1 UNL1     0.0428
     83 H         -1.981463   -1.574436   -8.657556 H        1 UNL1     0.0428
     84 H         -3.92227   -4.110993   -5.846456 H        1 UNL1     0.0428
     85 H         -3.091224   -4.895716   -7.143644 H        1 UNL1     0.0428
     86 H         -1.904767   -4.770127   -4.952435 H        1 UNL1     0.0317
     87 H         -1.906001   -3.066571   -4.936732 H        1 UNL1     0.0317
     88 H         -4.717862   -3.501801   -8.385474 H        1 UNL1     0.0429
     89 H         -5.110715   -2.11978   -7.359843 H        1 UNL1     0.0429
     90 H         -3.075432   -1.243611   -9.20575 H        1 UNL1     0.0308
     91 H         -4.974698   -3.234333   -10.428799 H        1 UNL1     0.0233
     92 H         -4.728723   -1.711916   -11.321681 H        1 UNL1     0.0233
     93 H         -3.370108   -2.759222   -10.972512 H        1 UNL1     0.0233
     94 H         -4.878141   0.225994   -10.041559 H        1 UNL1     0.0233
     95 H         -6.045919   -0.69972   -9.085694 H        1 UNL1     0.0233
     96 H         -4.754905   0.21261   -8.270263 H        1 UNL1     0.0233
     97 H         7.633711   -6.046565   -7.761395 H        1 UNL1     0.0280
     98 H         7.6494   -4.348716   -7.368648 H        1 UNL1     0.0280
     99 H         7.678593   -5.563278   -6.055744 H        1 UNL1     0.0280
     100 H         4.930965   -7.083121   -9.394476 H        1 UNL1     0.2922
     101 H         0.748518   -5.959127   -0.452854 H        1 UNL1     0.0236
     102 H         -0.542683   -6.978271   -1.201324 H        1 UNL1     0.0236
     103 H         -0.933692   -5.639394   -0.166906 H        1 UNL1     0.0236
     104 H         -1.693205   -4.083704   0.02759 H        1 UNL1     0.2098
     105 H         0.056987   -0.529491   -1.651418 H        1 UNL1     0.0234
     106 H         -1.453343   -0.507204   -0.697739 H        1 UNL1     0.0234
     107 H         0.0   0.0   0.0 H        1 UNL1     0.0234
     108 H         3.122127   -2.650638   1.095222 H        1 UNL1     0.2098
     109 H         1.023469   0.449957   -2.207825 H        1 UNL1     0.0234
     110 H         2.496572   0.453096   -3.228981 H        1 UNL1     0.0234
     111 H         1.983265   -0.996515   -2.439051 H        1 UNL1     0.0234
     112 H         -0.887864   0.778026   2.53577 H        1 UNL1     0.0342
     113 H         -1.658352   1.15441   0.953708 H        1 UNL1     0.0342
     114 H         -0.280049   0.053781   1.036583 H        1 UNL1     0.0342
     115 H         3.305517   -1.41946   2.939835 H        1 UNL1     0.0234
     116 H         4.197427   -0.267118   1.94114 H        1 UNL1     0.0234
     117 H         3.136924   0.240219   3.272151 H        1 UNL1     0.0234
     118 H         6.054318   -1.55642   -4.382743 H        1 UNL1     0.0309
     119 H         5.039995   -1.998719   -5.79114 H        1 UNL1     0.0309
     120 H         4.347475   -1.308078   -4.340076 H        1 UNL1     0.0309
     121 H         6.459421   -0.258772   0.749031 H        1 UNL1     0.0524
     122 H         6.152046   -1.911497   1.297552 H        1 UNL1     0.0524
     123 H         6.399742   -1.590543   -0.437203 H        1 UNL1     0.0524
@<TRIPOS>BOND
     1     1     2    1
     2     1    42    1
     3     2     3    2
     4     3     4    1
     5     4     5    2
     6     5     7    1
     7     6    75    1
     8     6    76    1
     9     6    77    1
    10     7     9   am
    11     9    10    1
    12    10    11    2
    13    10    43    1
    14    11    14    1
    15    11    15    1
    16    12    13   ar
    17    12    27   ar
    18    12    43    1
    19    13    14    1
    20    13    30   ar
    21    14    17    2
    22    15    16    1
    23    16    17    1
    24    16    18    1
    25    16    22    1
    26    18    19    1
    27    19    20    1
    28    20    21    1
    29    21    22    1
    30    23    24    1
    31    23    88    1
    32    23    89    1
    33    24    25    1
    34    24    26    1
    35    24    90    1
    36    25    91    1
    37    25    92    1
    38    25    93    1
    39    26    94    1
    40    26    95    1
    41    26    96    1
    42    27    28   ar
    43    28    29   ar
    44    29    30   ar
    45    29    31    1
    46    30    33    1
    47    31    32    1
    48    32    33    1
    49    32    35    1
    50    34    97    1
    51    34    98    1
    52    34    99    1
    53    35    61    1
    54    36    37    1
    55    36    60    1
    56    37    38    1
    57    38    39    1
    58    39    40    1
    59    40    41    1
    60    41    42    1
    61    45   100    1
    62    47   101    1
    63    47   102    1
    64    47   103    1
    65    48   104    1
    66    49   105    1
    67    49   106    1
    68    49   107    1
    69    50   108    1
    70    51    59    1
    71    52   109    1
    72    52   110    1
    73    52   111    1
    74    53    54    1
    75    54    55    2
    76    54    56    1
    77    56   112    1
    78    56   113    1
    79    56   114    1
    80    57   115    1
    81    57   116    1
    82    57   117    1
    83    58   118    1
    84    58   119    1
    85    58   120    1
    86    59   121    1
    87    59   122    1
    88    59   123    1
    89    60    61    2
    90     1    47    1
    91     1    62    1
    92     2    63    1
    93     3    64    1
    94     4    65    1
    95     5     6    1
    96     7     8    2
    97     9    78    1
    98    15    79    1
    99    18    80    1
   100    18    81    1
   101    19    82    1
   102    19    83    1
   103    20    23    1
   104    21    84    1
   105    21    85    1
   106    22    86    1
   107    22    87    1
   108    27    45    1
   109    28    34    1
   110    32    58    1
   111    33    46    2
   112    36    51    1
   113    36    66    1
   114    37    52    1
   115    37    67    1
   116    38    53    1
   117    38    68    1
   118    42    48    1
   119    42    72    1
   120    43    44    2
   121    60    73    1
   122    61    74    1
   123    39    69    1
   124    39    57    1
   125    40    70    1
   126    40    50    1
   127    41    71    1
   128    41    49    1
