@<TRIPOS>MOLECULE
*****
 123 128 0 0 0
SMALL
GASTEIGER

@<TRIPOS>ATOM
     1 C         4.996916   2.180908   0.531993 C.3        1 UNL1     0.0009
     2 C         6.402929   3.026092   -0.33162 C.2        1 UNL1     -0.0787
     3 C         7.717884   2.976852   -0.935372 C.2        1 UNL1     -0.0649
     4 C         8.528664   4.209794   -1.76534 C.2        1 UNL1     -0.0542
     5 C         9.564498   4.502969   -2.686303 C.2        1 UNL1     0.0115
     6 C         10.77739   3.900096   -3.447066 C.3        1 UNL1     -0.0348
     7 C         9.569937   5.93035   -3.42084 C.2        1 UNL1     0.2441
     8 O         10.307873   6.847378   -3.087621 O.2        1 UNL1     -0.2702
     9 N         8.860456   5.971281   -4.633734 N.am        1 UNL1     -0.2772
     10 C         7.53805   6.276098   -4.406466 C.2        1 UNL1     0.1049
     11 C         6.759291   5.267071   -4.060601 C.2        1 UNL1     0.0801
     12 C         6.052843   7.886523   -3.198978 C.ar        1 UNL1     0.0753
     13 C         5.36567   6.742921   -2.680737 C.ar        1 UNL1     0.0305
     14 C         5.615266   5.400059   -3.199847 C.2        1 UNL1     0.0924
     15 N         6.993975   3.944055   -4.093458 N.pl3        1 UNL1     -0.3170
     16 C         5.762423   3.271308   -3.775741 C.3        1 UNL1     0.1275
     17 N         5.007873   4.252368   -2.912086 N.2        1 UNL1     -0.2557
     18 C         4.966747   3.148779   -5.07173 C.3        1 UNL1     0.0016
     19 C         5.824661   2.433729   -6.103368 C.3        1 UNL1     0.0026
     20 N         6.185011   1.121795   -5.583748 N.3        1 UNL1     -0.3018
     21 C         6.900719   1.134185   -4.306259 C.3        1 UNL1     0.0026
     22 C         6.018882   1.85297   -3.28371 C.3        1 UNL1     0.0016
     23 C         6.743711   0.24818   -6.596317 C.3        1 UNL1     0.0012
     24 C         5.658163   -0.18116   -7.59582 C.3        1 UNL1     -0.0339
     25 C         5.895761   -1.612881   -8.10354 C.3        1 UNL1     -0.0615
     26 C         4.283437   -0.031741   -6.967662 C.3        1 UNL1     -0.0615
     27 C         5.723774   9.175135   -2.785079 C.ar        1 UNL1     0.1347
     28 C         4.703144   9.446988   -1.891513 C.ar        1 UNL1     0.0342
     29 C         4.073145   8.302802   -1.357562 C.ar        1 UNL1     0.1435
     30 C         4.416494   7.004174   -1.735577 C.ar        1 UNL1     0.0774
     31 O         2.988191   8.403707   -0.559001 O.3        1 UNL1     -0.4436
     32 C         2.373733   7.107558   -0.616541 C.3        1 UNL1     0.3143
     33 C         3.485946   6.159295   -1.016531 C.2        1 UNL1     0.2504
     34 C         4.129685   10.804552   -1.594419 C.3        1 UNL1     -0.0327
     35 O         1.988516   6.759098   0.718913 O.2        1 UNL1     -0.4528
     36 C         -1.069583   4.537187   0.37362 C.3        1 UNL1     0.0854
     37 C         -1.232409   3.182055   -0.416715 C.3        1 UNL1     0.0236
     38 C         -1.766898   1.949196   0.45857 C.3        1 UNL1     0.1131
     39 C         -1.062141   1.596057   1.830022 C.3        1 UNL1     0.0200
     40 C         0.601691   1.593033   1.948735 C.3        1 UNL1     0.0661
     41 C         1.671788   0.807311   0.892733 C.3        1 UNL1     0.0091
     42 C         3.36948   1.259665   0.364887 C.3        1 UNL1     0.0661
     43 C         7.067011   7.661246   -4.258683 C.2        1 UNL1     0.2131
     44 O         7.427215   8.523192   -5.039734 O.2        1 UNL1     -0.2851
     45 O         6.471788   10.230053   -3.303789 O.3        1 UNL1     -0.5056
     46 O         3.591148   4.977283   -0.776461 O.2        1 UNL1     -0.2836
     47 C         5.359325   1.913107   2.017565 C.3        1 UNL1     -0.0566
     48 O         3.924133   -0.096786   0.591862 O.3        1 UNL1     -0.3909
     49 C         0.916688   0.398851   -0.352449 C.3        1 UNL1     -0.0577
     50 O         1.084815   2.88615   2.252317 O.3        1 UNL1     -0.3910
     51 O         -1.242269   4.460165   1.770645 O.3        1 UNL1     -0.3753
     52 C         -0.126514   3.008736   -1.508458 C.3        1 UNL1     -0.0564
     53 O         -2.24321   0.789154   -0.365903 O.3        1 UNL1     -0.4608
     54 C         -2.139885   -0.531452   -0.014831 C.2        1 UNL1     0.3042
     55 O         -1.326547   -1.354179   -0.433688 O.2        1 UNL1     -0.2512
     56 C         -3.119587   -0.95068   1.04401 C.3        1 UNL1     0.0332
     57 C         -1.89125   2.310536   2.99633 C.3        1 UNL1     -0.0567
     58 C         1.333627   7.166908   -1.759426 C.3        1 UNL1     0.0210
     59 C         -2.339013   3.652325   2.195394 C.3        1 UNL1     0.0372
     60 C         0.214636   5.251828   0.138609 C.2        1 UNL1     -0.0208
     61 C         1.049191   5.835615   0.999687 C.2        1 UNL1     0.0882
     62 H         4.441041   3.126038   0.510956 H        1 UNL1     0.0365
     63 H         6.0495   4.059318   -0.33289 H        1 UNL1     0.0576
     64 H         8.260364   2.035713   -1.049743 H        1 UNL1     0.0615
     65 H         7.955156   5.108401   -1.522283 H        1 UNL1     0.0622
     66 H         -1.855918   5.189373   -0.031815 H        1 UNL1     0.0645
     67 H         -2.090639   3.363925   -1.086734 H        1 UNL1     0.0362
     68 H         -2.760792   2.335028   0.732123 H        1 UNL1     0.0741
     69 H         -1.32121   0.581889   2.103435 H        1 UNL1     0.0359
     70 H         0.72467   1.023787   2.889956 H        1 UNL1     0.0600
     71 H         1.776373   -0.165492   1.412036 H        1 UNL1     0.0348
     72 H         3.180231   1.821127   1.291311 H        1 UNL1     0.0602
     73 H         0.364191   5.366852   -0.906212 H        1 UNL1     0.0628
     74 H         0.999092   5.71851   2.082745 H        1 UNL1     0.1022
     75 H         11.354324   3.212405   -2.78279 H        1 UNL1     0.0279
     76 H         10.548196   3.264707   -4.299603 H        1 UNL1     0.0279
     77 H         11.54033   4.65243   -3.695294 H        1 UNL1     0.0279
     78 H         8.891792   5.05667   -5.079359 H        1 UNL1     0.1553
     79 H         7.718793   3.520444   -4.643117 H        1 UNL1     0.1484
     80 H         4.039437   2.598614   -4.87128 H        1 UNL1     0.0317
     81 H         4.671485   4.135492   -5.444384 H        1 UNL1     0.0317
     82 H         6.720768   3.016722   -6.362262 H        1 UNL1     0.0428
     83 H         5.238871   2.358672   -7.020028 H        1 UNL1     0.0428
     84 H         7.088871   0.135833   -3.89919 H        1 UNL1     0.0428
     85 H         7.902121   1.575946   -4.402999 H        1 UNL1     0.0428
     86 H         6.511106   1.726636   -2.337273 H        1 UNL1     0.0317
     87 H         5.075614   1.308465   -3.15388 H        1 UNL1     0.0317
     88 H         7.517826   0.806015   -7.13933 H        1 UNL1     0.0429
     89 H         7.233205   -0.624136   -6.144395 H        1 UNL1     0.0429
     90 H         5.670768   0.500456   -8.454572 H        1 UNL1     0.0308
     91 H         6.13143   -2.293086   -7.279596 H        1 UNL1     0.0233
     92 H         5.017024   -1.984894   -8.63555 H        1 UNL1     0.0233
     93 H         6.73016   -1.671348   -8.812902 H        1 UNL1     0.0233
     94 H         3.560364   -0.67187   -7.484612 H        1 UNL1     0.0233
     95 H         4.316504   -0.339321   -5.918728 H        1 UNL1     0.0233
     96 H         3.930332   1.001889   -7.02146 H        1 UNL1     0.0233
     97 H         3.064966   10.851594   -1.802721 H        1 UNL1     0.0280
     98 H         4.241487   11.0787   -0.537253 H        1 UNL1     0.0280
     99 H         4.636709   11.562845   -2.2133 H        1 UNL1     0.0280
     100 H         7.403933   10.110561   -3.254295 H        1 UNL1     0.2922
     101 H         4.44887   1.756277   2.595608 H        1 UNL1     0.0236
     102 H         5.990686   2.687941   2.451153 H        1 UNL1     0.0236
     103 H         5.933993   0.980113   2.14195 H        1 UNL1     0.0236
     104 H         3.507625   -0.454265   1.40038 H        1 UNL1     0.2098
     105 H         0.685092   1.219542   -1.02672 H        1 UNL1     0.0234
     106 H         1.361977   -0.429052   -0.90401 H        1 UNL1     0.0234
     107 H         0.0   -0.0   0.0 H        1 UNL1     0.0234
     108 H         0.337508   3.396096   2.620088 H        1 UNL1     0.2098
     109 H         -0.421291   3.446615   -2.472346 H        1 UNL1     0.0234
     110 H         0.845315   3.412374   -1.204538 H        1 UNL1     0.0234
     111 H         0.077521   1.949313   -1.71325 H        1 UNL1     0.0234
     112 H         -3.562123   -1.91607   0.780322 H        1 UNL1     0.0342
     113 H         -2.663924   -0.986676   2.032402 H        1 UNL1     0.0342
     114 H         -3.928035   -0.207387   1.077048 H        1 UNL1     0.0342
     115 H         -2.961934   2.069803   2.942737 H        1 UNL1     0.0234
     116 H         -1.548363   2.060229   4.002224 H        1 UNL1     0.0234
     117 H         -1.915476   3.410382   2.908624 H        1 UNL1     0.0234
     118 H         0.297589   7.133001   -1.379317 H        1 UNL1     0.0309
     119 H         1.450858   8.045416   -2.401829 H        1 UNL1     0.0309
     120 H         1.387881   6.296774   -2.422772 H        1 UNL1     0.0309
     121 H         -2.656986   4.015368   3.172354 H        1 UNL1     0.0524
     122 H         -3.203505   3.729374   1.515133 H        1 UNL1     0.0524
     123 H         -2.035196   2.611545   2.262966 H        1 UNL1     0.0524
@<TRIPOS>BOND
     1     1     2    1
     2     1    42    1
     3     2     3    2
     4     3     4    1
     5     4     5    2
     6     5     7    1
     7     6    75    1
     8     6    76    1
     9     6    77    1
    10     7     9   am
    11     9    10    1
    12    10    11    2
    13    10    43    1
    14    11    14    1
    15    11    15    1
    16    12    13   ar
    17    12    27   ar
    18    12    43    1
    19    13    14    1
    20    13    30   ar
    21    14    17    2
    22    15    16    1
    23    16    17    1
    24    16    18    1
    25    16    22    1
    26    18    19    1
    27    19    20    1
    28    20    21    1
    29    21    22    1
    30    23    24    1
    31    23    88    1
    32    23    89    1
    33    24    25    1
    34    24    26    1
    35    24    90    1
    36    25    91    1
    37    25    92    1
    38    25    93    1
    39    26    94    1
    40    26    95    1
    41    26    96    1
    42    27    28   ar
    43    28    29   ar
    44    29    30   ar
    45    29    31    1
    46    30    33    1
    47    31    32    1
    48    32    33    1
    49    32    35    1
    50    34    97    1
    51    34    98    1
    52    34    99    1
    53    35    61    1
    54    36    37    1
    55    36    60    1
    56    37    38    1
    57    38    39    1
    58    39    40    1
    59    40    41    1
    60    41    42    1
    61    45   100    1
    62    47   101    1
    63    47   102    1
    64    47   103    1
    65    48   104    1
    66    49   105    1
    67    49   106    1
    68    49   107    1
    69    50   108    1
    70    51    59    1
    71    52   109    1
    72    52   110    1
    73    52   111    1
    74    53    54    1
    75    54    55    2
    76    54    56    1
    77    56   112    1
    78    56   113    1
    79    56   114    1
    80    57   115    1
    81    57   116    1
    82    57   117    1
    83    58   118    1
    84    58   119    1
    85    58   120    1
    86    59   121    1
    87    59   122    1
    88    59   123    1
    89    60    61    2
    90     1    47    1
    91     1    62    1
    92     2    63    1
    93     3    64    1
    94     4    65    1
    95     5     6    1
    96     7     8    2
    97     9    78    1
    98    15    79    1
    99    18    80    1
   100    18    81    1
   101    19    82    1
   102    19    83    1
   103    20    23    1
   104    21    84    1
   105    21    85    1
   106    22    86    1
   107    22    87    1
   108    27    45    1
   109    28    34    1
   110    32    58    1
   111    33    46    2
   112    36    51    1
   113    36    66    1
   114    37    52    1
   115    37    67    1
   116    38    53    1
   117    38    68    1
   118    42    48    1
   119    42    72    1
   120    43    44    2
   121    60    73    1
   122    61    74    1
   123    39    69    1
   124    39    57    1
   125    40    70    1
   126    40    50    1
   127    41    71    1
   128    41    49    1
