@<TRIPOS>MOLECULE
*****
 123 128 0 0 0
SMALL
GASTEIGER

@<TRIPOS>ATOM
     1 C         -1.671686   3.741353   1.1718 C.3        1 UNL1     0.0009
     2 C         -3.417114   4.363407   1.112072 C.2        1 UNL1     -0.0787
     3 C         -4.49941   5.000917   0.392167 C.2        1 UNL1     -0.0649
     4 C         -6.100947   5.215713   0.89744 C.2        1 UNL1     -0.0542
     5 C         -7.428667   5.467629   0.472263 C.2        1 UNL1     0.0115
     6 C         -8.301441   5.880376   -0.744795 C.3        1 UNL1     -0.0348
     7 C         -8.640601   5.134381   1.470837 C.2        1 UNL1     0.2441
     8 O         -9.22997   5.993512   2.111979 O.2        1 UNL1     -0.2702
     9 N         -9.150617   3.828852   1.362995 N.am        1 UNL1     -0.2772
     10 C         -8.454027   2.971858   2.183755 C.2        1 UNL1     0.1049
     11 C         -7.319319   2.498131   1.70184 C.2        1 UNL1     0.0801
     12 C         -7.612107   2.713744   4.525097 C.ar        1 UNL1     0.0753
     13 C         -6.337878   2.40737   3.9497 C.ar        1 UNL1     0.0305
     14 C         -6.184288   2.161131   2.517629 C.2        1 UNL1     0.0924
     15 N         -6.82409   2.546296   0.453258 N.pl3        1 UNL1     -0.3170
     16 C         -5.637867   1.732675   0.419358 C.3        1 UNL1     0.1275
     17 N         -5.112141   1.772042   1.833496 N.2        1 UNL1     -0.2557
     18 C         -6.083003   0.294332   0.172935 C.3        1 UNL1     0.0016
     19 C         -6.909451   0.25276   -1.102544 C.3        1 UNL1     0.0026
     20 N         -6.094213   0.74501   -2.204407 N.3        1 UNL1     -0.3018
     21 C         -5.567563   2.10035   -2.031017 C.3        1 UNL1     0.0026
     22 C         -4.73698   2.118007   -0.746605 C.3        1 UNL1     0.0016
     23 C         -6.675882   0.469811   -3.503087 C.3        1 UNL1     0.0012
     24 C         -7.694586   1.557527   -3.87842 C.3        1 UNL1     -0.0339
     25 C         -8.8619   0.977441   -4.693855 C.3        1 UNL1     -0.0615
     26 C         -8.184293   2.266305   -2.627581 C.3        1 UNL1     -0.0615
     27 C         -7.772724   2.827888   5.90397 C.ar        1 UNL1     0.1347
     28 C         -6.745428   2.618976   6.806782 C.ar        1 UNL1     0.0342
     29 C         -5.489365   2.366711   6.215316 C.ar        1 UNL1     0.1435
     30 C         -5.305934   2.285235   4.834398 C.ar        1 UNL1     0.0774
     31 O         -4.413287   2.033847   6.961147 O.3        1 UNL1     -0.4436
     32 C         -3.509651   1.410507   6.036073 C.3        1 UNL1     0.3143
     33 C         -3.908508   1.941384   4.67398 C.2        1 UNL1     0.2504
     34 C         -6.895604   2.476451   8.29582 C.3        1 UNL1     -0.0327
     35 O         -2.19861   1.91766   6.313953 O.2        1 UNL1     -0.4528
     36 C         0.212247   -0.859582   5.374388 C.3        1 UNL1     0.0854
     37 C         0.393295   -1.596348   3.991666 C.3        1 UNL1     0.0236
     38 C         1.88402   -1.568565   3.401147 C.3        1 UNL1     0.1131
     39 C         2.659458   -0.194204   3.29116 C.3        1 UNL1     0.0200
     40 C         1.884921   1.169828   2.723757 C.3        1 UNL1     0.0661
     41 C         0.965776   1.271472   1.301628 C.3        1 UNL1     0.0091
     42 C         -0.503231   2.296154   0.904832 C.3        1 UNL1     0.0661
     43 C         -8.775958   2.817673   3.610268 C.2        1 UNL1     0.2131
     44 O         -9.930688   2.681984   3.972103 O.2        1 UNL1     -0.2851
     45 O         -9.035845   3.173551   6.37987 O.3        1 UNL1     -0.5056
     46 O         -3.221727   2.072008   3.685485 O.2        1 UNL1     -0.2836
     47 C         -0.679964   4.928997   1.298173 C.3        1 UNL1     -0.0566
     48 O         0.02637   2.752123   -0.403118 O.3        1 UNL1     -0.3909
     49 C         0.673823   -0.128092   0.808192 C.3        1 UNL1     -0.0577
     50 O         1.224448   1.845041   3.775226 O.3        1 UNL1     -0.3910
     51 O         1.325701   -0.125889   5.83193 O.3        1 UNL1     -0.3753
     52 C         -0.865718   -1.436901   3.078205 C.3        1 UNL1     -0.0564
     53 O         2.108627   -2.553049   2.290891 O.3        1 UNL1     -0.4608
     54 C         3.102175   -2.477496   1.350102 C.2        1 UNL1     0.3042
     55 O         3.764379   -3.405334   0.887025 O.2        1 UNL1     -0.2512
     56 C         3.325671   -1.089162   0.821621 C.3        1 UNL1     0.0332
     57 C         3.566436   -0.046079   4.600215 C.3        1 UNL1     -0.0567
     58 C         -3.808246   -0.10598   6.087452 C.3        1 UNL1     0.0210
     59 C         1.108762   0.601661   7.040017 C.3        1 UNL1     0.0372
     60 C         -0.963022   0.05021   5.453012 C.2        1 UNL1     -0.0208
     61 C         -1.068269   1.286034   5.943325 C.2        1 UNL1     0.0882
     62 H         -1.856277   3.378095   2.189976 H        1 UNL1     0.0365
     63 H         -3.734961   4.177019   2.140032 H        1 UNL1     0.0576
     64 H         -4.405491   5.2694   -0.662443 H        1 UNL1     0.0615
     65 H         -6.067353   5.000057   1.968816 H        1 UNL1     0.0622
     66 H         0.016838   -1.667125   6.093927 H        1 UNL1     0.0645
     67 H         0.275534   -2.665445   4.24011 H        1 UNL1     0.0362
     68 H         2.40436   -2.13496   4.188526 H        1 UNL1     0.0741
     69 H         3.476891   -0.310779   2.592146 H        1 UNL1     0.0359
     70 H         2.761567   1.805415   2.494454 H        1 UNL1     0.0600
     71 H         1.748988   1.594248   0.587938 H        1 UNL1     0.0348
     72 H         -0.022416   2.777176   1.768979 H        1 UNL1     0.0602
     73 H         -1.834073   -0.477776   5.153432 H        1 UNL1     0.0628
     74 H         -0.220597   1.91488   6.21763 H        1 UNL1     0.1022
     75 H         -8.183137   6.969624   -0.960611 H        1 UNL1     0.0279
     76 H         -8.04977   5.423744   -1.699372 H        1 UNL1     0.0279
     77 H         -9.379455   5.816527   -0.536205 H        1 UNL1     0.0279
     78 H         -9.039388   3.496026   0.40752 H        1 UNL1     0.1553
     79 H         -7.382167   2.728067   -0.360648 H        1 UNL1     0.1484
     80 H         -5.196132   -0.346291   0.096594 H        1 UNL1     0.0317
     81 H         -6.670795   -0.083327   1.016456 H        1 UNL1     0.0317
     82 H         -7.837359   0.835427   -1.005603 H        1 UNL1     0.0428
     83 H         -7.218022   -0.781431   -1.258376 H        1 UNL1     0.0428
     84 H         -4.894476   2.415502   -2.834412 H        1 UNL1     0.0428
     85 H         -6.367039   2.854034   -2.041714 H        1 UNL1     0.0428
     86 H         -4.261637   3.08105   -0.722396 H        1 UNL1     0.0317
     87 H         -3.894489   1.421308   -0.835573 H        1 UNL1     0.0317
     88 H         -5.868542   0.475432   -4.247039 H        1 UNL1     0.0429
     89 H         -7.13294   -0.527703   -3.53202 H        1 UNL1     0.0429
     90 H         -7.194863   2.32498   -4.481336 H        1 UNL1     0.0308
     91 H         -9.24028   0.054037   -4.245241 H        1 UNL1     0.0233
     92 H         -9.677668   1.700306   -4.768675 H        1 UNL1     0.0233
     93 H         -8.572365   0.735441   -5.723632 H        1 UNL1     0.0233
     94 H         -9.151304   2.744157   -2.818324 H        1 UNL1     0.0233
     95 H         -8.319083   1.544148   -1.817467 H        1 UNL1     0.0233
     96 H         -7.477511   3.034552   -2.301661 H        1 UNL1     0.0233
     97 H         -7.843688   2.02233   8.568108 H        1 UNL1     0.0280
     98 H         -6.118777   1.833903   8.730477 H        1 UNL1     0.0280
     99 H         -6.839953   3.470405   8.769165 H        1 UNL1     0.0280
     100 H         -9.564921   3.657531   5.770391 H        1 UNL1     0.2922
     101 H         0.319266   4.606218   1.006607 H        1 UNL1     0.0236
     102 H         -0.688758   5.391689   2.284491 H        1 UNL1     0.0236
     103 H         -0.923909   5.748178   0.601304 H        1 UNL1     0.0236
     104 H         0.54162   3.567234   -0.244745 H        1 UNL1     0.2098
     105 H         1.543356   -0.663165   0.434802 H        1 UNL1     0.0234
     106 H         0.118863   -0.751535   1.509096 H        1 UNL1     0.0234
     107 H         -0.0   0.0   0.0 H        1 UNL1     0.0234
     108 H         0.561033   2.435633   3.369208 H        1 UNL1     0.2098
     109 H         -1.089148   -0.383679   2.857945 H        1 UNL1     0.0234
     110 H         -0.791734   -1.999466   2.1413 H        1 UNL1     0.0234
     111 H         -1.767951   -1.837904   3.558954 H        1 UNL1     0.0234
     112 H         3.94385   -0.519378   1.522012 H        1 UNL1     0.0342
     113 H         3.767857   -1.096007   -0.173501 H        1 UNL1     0.0342
     114 H         2.350341   -0.588535   0.749043 H        1 UNL1     0.0342
     115 H         4.198306   -0.930343   4.761476 H        1 UNL1     0.0234
     116 H         4.220907   0.827774   4.590302 H        1 UNL1     0.0234
     117 H         2.985178   -0.025611   5.538118 H        1 UNL1     0.0234
     118 H         -3.453995   -0.566717   7.026193 H        1 UNL1     0.0309
     119 H         -4.868945   -0.339846   5.951713 H        1 UNL1     0.0309
     120 H         -3.272702   -0.666317   5.313294 H        1 UNL1     0.0309
     121 H         1.802628   1.441805   7.048043 H        1 UNL1     0.0524
     122 H         0.087812   1.013695   7.102664 H        1 UNL1     0.0524
     123 H         1.284347   -0.037726   7.900511 H        1 UNL1     0.0524
@<TRIPOS>BOND
     1     1     2    1
     2     1    42    1
     3     2     3    2
     4     3     4    1
     5     4     5    2
     6     5     7    1
     7     6    75    1
     8     6    76    1
     9     6    77    1
    10     7     9   am
    11     9    10    1
    12    10    11    2
    13    10    43    1
    14    11    14    1
    15    11    15    1
    16    12    13   ar
    17    12    27   ar
    18    12    43    1
    19    13    14    1
    20    13    30   ar
    21    14    17    2
    22    15    16    1
    23    16    17    1
    24    16    18    1
    25    16    22    1
    26    18    19    1
    27    19    20    1
    28    20    21    1
    29    21    22    1
    30    23    24    1
    31    23    88    1
    32    23    89    1
    33    24    25    1
    34    24    26    1
    35    24    90    1
    36    25    91    1
    37    25    92    1
    38    25    93    1
    39    26    94    1
    40    26    95    1
    41    26    96    1
    42    27    28   ar
    43    28    29   ar
    44    29    30   ar
    45    29    31    1
    46    30    33    1
    47    31    32    1
    48    32    33    1
    49    32    35    1
    50    34    97    1
    51    34    98    1
    52    34    99    1
    53    35    61    1
    54    36    37    1
    55    36    60    1
    56    37    38    1
    57    38    39    1
    58    39    40    1
    59    40    41    1
    60    41    42    1
    61    45   100    1
    62    47   101    1
    63    47   102    1
    64    47   103    1
    65    48   104    1
    66    49   105    1
    67    49   106    1
    68    49   107    1
    69    50   108    1
    70    51    59    1
    71    52   109    1
    72    52   110    1
    73    52   111    1
    74    53    54    1
    75    54    55    2
    76    54    56    1
    77    56   112    1
    78    56   113    1
    79    56   114    1
    80    57   115    1
    81    57   116    1
    82    57   117    1
    83    58   118    1
    84    58   119    1
    85    58   120    1
    86    59   121    1
    87    59   122    1
    88    59   123    1
    89    60    61    2
    90     1    47    1
    91     1    62    1
    92     2    63    1
    93     3    64    1
    94     4    65    1
    95     5     6    1
    96     7     8    2
    97     9    78    1
    98    15    79    1
    99    18    80    1
   100    18    81    1
   101    19    82    1
   102    19    83    1
   103    20    23    1
   104    21    84    1
   105    21    85    1
   106    22    86    1
   107    22    87    1
   108    27    45    1
   109    28    34    1
   110    32    58    1
   111    33    46    2
   112    36    51    1
   113    36    66    1
   114    37    52    1
   115    37    67    1
   116    38    53    1
   117    38    68    1
   118    42    48    1
   119    42    72    1
   120    43    44    2
   121    60    73    1
   122    61    74    1
   123    39    69    1
   124    39    57    1
   125    40    70    1
   126    40    50    1
   127    41    71    1
   128    41    49    1
