@<TRIPOS>MOLECULE
*****
 123 128 0 0 0
SMALL
GASTEIGER

@<TRIPOS>ATOM
     1 C         -4.627874   0.448646   2.205274 C.3        1 UNL1     0.0009
     2 C         -5.486427   0.618512   3.839614 C.2        1 UNL1     -0.0787
     3 C         -6.043808   0.019311   5.033905 C.2        1 UNL1     -0.0649
     4 C         -6.671155   0.804362   6.396435 C.2        1 UNL1     -0.0542
     5 C         -6.999943   0.665897   7.767494 C.2        1 UNL1     0.0115
     6 C         -7.158158   -0.358579   8.924534 C.3        1 UNL1     -0.0348
     7 C         -7.200687   1.987999   8.655602 C.2        1 UNL1     0.2441
     8 O         -8.302245   2.420909   8.964932 O.2        1 UNL1     -0.2702
     9 N         -6.031398   2.466741   9.271816 N.am        1 UNL1     -0.2772
     10 C         -5.364791   3.329324   8.432229 C.2        1 UNL1     0.1049
     11 C         -4.581075   2.771404   7.527388 C.2        1 UNL1     0.0801
     12 C         -5.703422   5.325962   6.963862 C.ar        1 UNL1     0.0753
     13 C         -5.02397   4.590965   5.940763 C.ar        1 UNL1     0.0305
     14 C         -4.325686   3.340934   6.232094 C.2        1 UNL1     0.0924
     15 N         -4.157322   1.500653   7.417144 N.pl3        1 UNL1     -0.3170
     16 C         -3.18496   1.452057   6.357708 C.3        1 UNL1     0.1275
     17 N         -3.569371   2.586604   5.439691 N.2        1 UNL1     -0.2557
     18 C         -1.837631   1.834733   6.962658 C.3        1 UNL1     0.0016
     19 C         -1.544706   0.901834   8.126911 C.3        1 UNL1     0.0026
     20 N         -1.527909   -0.468913   7.63518 N.3        1 UNL1     -0.3018
     21 C         -2.761243   -0.90961   6.980167 C.3        1 UNL1     0.0026
     22 C         -3.033839   0.038552   5.811161 C.3        1 UNL1     0.0016
     23 C         -0.967802   -1.403924   8.590521 C.3        1 UNL1     0.0012
     24 C         -1.792459   -2.700337   8.622326 C.3        1 UNL1     -0.0339
     25 C         -3.278057   -2.415223   8.89758 C.3        1 UNL1     -0.0615
     26 C         -1.6017   -3.470793   7.327417 C.3        1 UNL1     -0.0615
     27 C         -6.262823   6.574984   6.704765 C.ar        1 UNL1     0.1347
     28 C         -6.172377   7.206287   5.477033 C.ar        1 UNL1     0.0342
     29 C         -5.541686   6.442713   4.471872 C.ar        1 UNL1     0.1435
     30 C         -5.008383   5.174898   4.707355 C.ar        1 UNL1     0.0774
     31 O         -5.278537   6.962287   3.252937 O.3        1 UNL1     -0.4436
     32 C         -4.257046   6.11261   2.709358 C.3        1 UNL1     0.3143
     33 C         -4.401087   4.797468   3.448187 C.2        1 UNL1     0.2504
     34 C         -6.523735   8.640568   5.195102 C.3        1 UNL1     -0.0327
     35 O         -4.596199   5.861188   1.340046 O.2        1 UNL1     -0.4528
     36 C         -1.299491   5.360415   -0.473522 C.3        1 UNL1     0.0854
     37 C         -0.15261   4.316669   -0.185805 C.3        1 UNL1     0.0236
     38 C         0.255249   3.398916   -1.436055 C.3        1 UNL1     0.1131
     39 C         -0.866458   2.632835   -2.246711 C.3        1 UNL1     0.0200
     40 C         -2.099038   1.84492   -1.445229 C.3        1 UNL1     0.0661
     41 C         -1.910582   0.753338   -0.160495 C.3        1 UNL1     0.0091
     42 C         -2.995375   0.410523   1.278639 C.3        1 UNL1     0.0661
     43 C         -5.714938   4.754085   8.333199 C.2        1 UNL1     0.2131
     44 O         -5.894504   5.417692   9.338246 O.2        1 UNL1     -0.2851
     45 O         -6.946479   7.203649   7.743434 O.3        1 UNL1     -0.5056
     46 O         -4.102432   3.68576   3.073003 O.2        1 UNL1     -0.2836
     47 C         -5.611204   -0.093601   1.133354 C.3        1 UNL1     -0.0566
     48 O         -2.929252   -1.062665   1.122242 O.3        1 UNL1     -0.3909
     49 C         -0.497481   0.860725   0.367812 C.3        1 UNL1     -0.0577
     50 O         -3.167033   2.730208   -1.174347 O.3        1 UNL1     -0.3910
     51 O         -1.9395   5.243316   -1.724165 O.3        1 UNL1     -0.3753
     52 C         -0.232585   3.750817   1.269656 C.3        1 UNL1     -0.0564
     53 O         1.557309   2.675944   -1.25092 O.3        1 UNL1     -0.4608
     54 C         1.832486   1.776107   -0.254677 C.2        1 UNL1     0.3042
     55 O         1.123887   0.846035   0.128327 O.2        1 UNL1     -0.2512
     56 C         3.188173   1.961342   0.365417 C.3        1 UNL1     0.0332
     57 C         -1.255891   3.539328   -3.505594 C.3        1 UNL1     -0.0567
     58 C         -2.90371   6.754918   3.093351 C.3        1 UNL1     0.0210
     59 C         -1.372395   6.03832   -2.764466 C.3        1 UNL1     0.0372
     60 C         -2.37383   5.413704   0.555126 C.2        1 UNL1     -0.0208
     61 C         -3.699746   5.459326   0.418707 C.2        1 UNL1     0.0882
     62 H         -4.633134   1.541223   2.110619 H        1 UNL1     0.0365
     63 H         -5.682772   1.692597   3.855775 H        1 UNL1     0.0576
     64 H         -5.953896   -1.050953   5.232803 H        1 UNL1     0.0615
     65 H         -6.794165   1.839681   6.067095 H        1 UNL1     0.0622
     66 H         -0.798537   6.33804   -0.436939 H        1 UNL1     0.0645
     67 H         0.751647   4.938306   -0.065617 H        1 UNL1     0.0362
     68 H         0.630367   4.175651   -2.119789 H        1 UNL1     0.0741
     69 H         -0.403656   1.835284   -2.812516 H        1 UNL1     0.0359
     70 H         -2.475271   1.199259   -2.261703 H        1 UNL1     0.0600
     71 H         -1.860312   -0.19984   -0.722529 H        1 UNL1     0.0348
     72 H         -3.631113   0.906839   0.531094 H        1 UNL1     0.0602
     73 H         -1.934199   5.54233   1.512951 H        1 UNL1     0.0628
     74 H         -4.229941   5.27904   -0.517043 H        1 UNL1     0.1022
     75 H         -7.619162   0.127329   9.818068 H        1 UNL1     0.0279
     76 H         -7.82713   -1.196648   8.742367 H        1 UNL1     0.0279
     77 H         -6.192645   -0.691491   9.332768 H        1 UNL1     0.0279
     78 H         -5.406258   1.688424   9.470561 H        1 UNL1     0.1553
     79 H         -4.170576   0.841498   8.17363 H        1 UNL1     0.1484
     80 H         -1.064658   1.76335   6.187943 H        1 UNL1     0.0317
     81 H         -1.843592   2.875273   7.304551 H        1 UNL1     0.0317
     82 H         -2.276711   1.022058   8.939086 H        1 UNL1     0.0428
     83 H         -0.580603   1.193425   8.54468 H        1 UNL1     0.0428
     84 H         -2.69475   -1.913748   6.549939 H        1 UNL1     0.0428
     85 H         -3.598446   -0.977753   7.688521 H        1 UNL1     0.0428
     86 H         -3.862574   -0.38954   5.278315 H        1 UNL1     0.0317
     87 H         -2.211969   -0.013869   5.086678 H        1 UNL1     0.0317
     88 H         0.053997   -1.647435   8.271263 H        1 UNL1     0.0429
     89 H         -0.894419   -0.956671   9.590198 H        1 UNL1     0.0429
     90 H         -1.408626   -3.350783   9.417188 H        1 UNL1     0.0308
     91 H         -3.406805   -1.487979   9.463923 H        1 UNL1     0.0233
     92 H         -3.83767   -2.344624   7.961921 H        1 UNL1     0.0233
     93 H         -3.755409   -3.21259   9.47997 H        1 UNL1     0.0233
     94 H         -1.008659   -2.88048   6.620544 H        1 UNL1     0.0233
     95 H         -1.063788   -4.402676   7.522879 H        1 UNL1     0.0233
     96 H         -2.561122   -3.708504   6.859473 H        1 UNL1     0.0233
     97 H         -7.323811   8.997749   5.836609 H        1 UNL1     0.0280
     98 H         -5.67572   9.31604   5.367915 H        1 UNL1     0.0280
     99 H         -6.850033   8.74144   4.147033 H        1 UNL1     0.0280
     100 H         -7.806938   6.860792   7.909814 H        1 UNL1     0.2922
     101 H         -5.569025   0.535068   0.244168 H        1 UNL1     0.0236
     102 H         -6.628937   -0.209151   1.504639 H        1 UNL1     0.0236
     103 H         -5.325369   -1.098264   0.779597 H        1 UNL1     0.0236
     104 H         -3.590931   -1.317896   0.449927 H        1 UNL1     0.2098
     105 H         0.047251   1.734416   0.018896 H        1 UNL1     0.0234
     106 H         -0.407525   0.766746   1.44994 H        1 UNL1     0.0234
     107 H         0.0   0.0   0.0 H        1 UNL1     0.0234
     108 H         -3.007433   3.115725   -0.291357 H        1 UNL1     0.2098
     109 H         -0.902567   4.341908   1.909536 H        1 UNL1     0.0234
     110 H         -0.527118   2.696456   1.305942 H        1 UNL1     0.0234
     111 H         0.746761   3.770867   1.766068 H        1 UNL1     0.0234
     112 H         3.214751   1.486304   1.350799 H        1 UNL1     0.0342
     113 H         3.985467   1.582797   -0.272446 H        1 UNL1     0.0342
     114 H         3.357023   3.037877   0.505866 H        1 UNL1     0.0342
     115 H         -0.46059   4.2552   -3.755017 H        1 UNL1     0.0234
     116 H         -1.48087   2.970261   -4.409804 H        1 UNL1     0.0234
     117 H         -2.102582   4.220267   -3.312259 H        1 UNL1     0.0234
     118 H         -2.602587   7.543874   2.382099 H        1 UNL1     0.0309
     119 H         -2.895493   7.165366   4.108076 H        1 UNL1     0.0309
     120 H         -2.072433   6.042888   3.047523 H        1 UNL1     0.0309
     121 H         -1.889703   5.787711   -3.690178 H        1 UNL1     0.0524
     122 H         -1.510912   7.118101   -2.588618 H        1 UNL1     0.0524
     123 H         -0.310535   5.83006   -2.86026 H        1 UNL1     0.0524
@<TRIPOS>BOND
     1     1     2    1
     2     1    42    1
     3     2     3    2
     4     3     4    1
     5     4     5    2
     6     5     7    1
     7     6    75    1
     8     6    76    1
     9     6    77    1
    10     7     9   am
    11     9    10    1
    12    10    11    2
    13    10    43    1
    14    11    14    1
    15    11    15    1
    16    12    13   ar
    17    12    27   ar
    18    12    43    1
    19    13    14    1
    20    13    30   ar
    21    14    17    2
    22    15    16    1
    23    16    17    1
    24    16    18    1
    25    16    22    1
    26    18    19    1
    27    19    20    1
    28    20    21    1
    29    21    22    1
    30    23    24    1
    31    23    88    1
    32    23    89    1
    33    24    25    1
    34    24    26    1
    35    24    90    1
    36    25    91    1
    37    25    92    1
    38    25    93    1
    39    26    94    1
    40    26    95    1
    41    26    96    1
    42    27    28   ar
    43    28    29   ar
    44    29    30   ar
    45    29    31    1
    46    30    33    1
    47    31    32    1
    48    32    33    1
    49    32    35    1
    50    34    97    1
    51    34    98    1
    52    34    99    1
    53    35    61    1
    54    36    37    1
    55    36    60    1
    56    37    38    1
    57    38    39    1
    58    39    40    1
    59    40    41    1
    60    41    42    1
    61    45   100    1
    62    47   101    1
    63    47   102    1
    64    47   103    1
    65    48   104    1
    66    49   105    1
    67    49   106    1
    68    49   107    1
    69    50   108    1
    70    51    59    1
    71    52   109    1
    72    52   110    1
    73    52   111    1
    74    53    54    1
    75    54    55    2
    76    54    56    1
    77    56   112    1
    78    56   113    1
    79    56   114    1
    80    57   115    1
    81    57   116    1
    82    57   117    1
    83    58   118    1
    84    58   119    1
    85    58   120    1
    86    59   121    1
    87    59   122    1
    88    59   123    1
    89    60    61    2
    90     1    47    1
    91     1    62    1
    92     2    63    1
    93     3    64    1
    94     4    65    1
    95     5     6    1
    96     7     8    2
    97     9    78    1
    98    15    79    1
    99    18    80    1
   100    18    81    1
   101    19    82    1
   102    19    83    1
   103    20    23    1
   104    21    84    1
   105    21    85    1
   106    22    86    1
   107    22    87    1
   108    27    45    1
   109    28    34    1
   110    32    58    1
   111    33    46    2
   112    36    51    1
   113    36    66    1
   114    37    52    1
   115    37    67    1
   116    38    53    1
   117    38    68    1
   118    42    48    1
   119    42    72    1
   120    43    44    2
   121    60    73    1
   122    61    74    1
   123    39    69    1
   124    39    57    1
   125    40    70    1
   126    40    50    1
   127    41    71    1
   128    41    49    1
