@<TRIPOS>MOLECULE
*****
 123 128 0 0 0
SMALL
GASTEIGER

@<TRIPOS>ATOM
     1 C         1.069016   -0.230463   4.050899 C.3        1 UNL1     0.0009
     2 C         1.176323   1.164068   5.267782 C.2        1 UNL1     -0.0787
     3 C         1.966901   2.101134   6.037808 C.2        1 UNL1     -0.0649
     4 C         1.417246   3.372051   7.011978 C.2        1 UNL1     -0.0542
     5 C         1.770323   4.595616   7.632704 C.2        1 UNL1     0.0115
     6 C         2.960728   5.532686   7.976448 C.3        1 UNL1     -0.0348
     7 C         0.603488   5.583159   8.122852 C.2        1 UNL1     0.2441
     8 O         0.262769   5.681138   9.293679 O.2        1 UNL1     -0.2702
     9 N         0.178533   6.515941   7.160832 N.am        1 UNL1     -0.2772
     10 C         -0.823602   5.981752   6.383858 C.2        1 UNL1     0.1049
     11 C         -0.436116   5.21897   5.377756 C.2        1 UNL1     0.0801
     12 C         -3.002476   4.76066   6.520884 C.ar        1 UNL1     0.0753
     13 C         -2.45372   3.835481   5.576682 C.ar        1 UNL1     0.0305
     14 C         -1.201151   4.109746   4.876039 C.2        1 UNL1     0.0924
     15 N         0.787405   5.039451   4.851168 N.pl3        1 UNL1     -0.3170
     16 C         0.641563   4.241473   3.662802 C.3        1 UNL1     0.1275
     17 N         -0.601828   3.422024   3.908166 N.2        1 UNL1     -0.2557
     18 C         0.303228   5.192146   2.518489 C.3        1 UNL1     0.0016
     19 C         1.387404   6.254548   2.432149 C.3        1 UNL1     0.0026
     20 N         2.668139   5.598698   2.207189 N.3        1 UNL1     -0.3018
     21 C         3.052113   4.618712   3.225305 C.3        1 UNL1     0.0026
     22 C         1.95139   3.558585   3.291902 C.3        1 UNL1     0.0016
     23 C         3.713364   6.522475   1.813763 C.3        1 UNL1     0.0012
     24 C         3.461119   7.047227   0.391524 C.3        1 UNL1     -0.0339
     25 C         1.96504   7.29963   0.142331 C.3        1 UNL1     -0.0615
     26 C         4.287798   8.296928   0.14327 C.3        1 UNL1     -0.0615
     27 C         -4.254427   4.549891   7.09387 C.ar        1 UNL1     0.1347
     28 C         -5.064305   3.47537   6.772073 C.ar        1 UNL1     0.0342
     29 C         -4.482824   2.552119   5.877282 C.ar        1 UNL1     0.1435
     30 C         -3.214844   2.731475   5.322956 C.ar        1 UNL1     0.0774
     31 O         -5.187421   1.511414   5.38182 O.3        1 UNL1     -0.4436
     32 C         -4.466737   1.112466   4.206095 C.3        1 UNL1     0.3143
     33 C         -3.05186   1.610798   4.420579 C.2        1 UNL1     0.2504
     34 C         -6.510471   3.316682   7.150915 C.3        1 UNL1     -0.0327
     35 O         -4.409395   -0.319303   4.206955 O.2        1 UNL1     -0.4528
     36 C         -4.30722   -1.35888   0.557718 C.3        1 UNL1     0.0854
     37 C         -3.275747   -0.954692   -0.564876 C.3        1 UNL1     0.0236
     38 C         -2.570077   -2.187135   -1.309764 C.3        1 UNL1     0.1131
     39 C         -1.891887   -3.334988   -0.458435 C.3        1 UNL1     0.0200
     40 C         -0.948119   -2.960207   0.864924 C.3        1 UNL1     0.0661
     41 C         0.314682   -1.827966   0.896166 C.3        1 UNL1     0.0091
     42 C         0.907988   -0.744198   2.252203 C.3        1 UNL1     0.0661
     43 C         -2.233192   5.99809   6.80236 C.2        1 UNL1     0.2131
     44 O         -2.732714   7.013554   7.251857 O.2        1 UNL1     -0.2851
     45 O         -4.695636   5.474599   8.038162 O.3        1 UNL1     -0.5056
     46 O         -2.020258   1.168549   3.966632 O.2        1 UNL1     -0.2836
     47 C         1.481991   -1.566827   4.724371 C.3        1 UNL1     -0.0566
     48 O         2.338009   -1.079655   2.048184 O.3        1 UNL1     -0.3909
     49 C         0.234524   -0.973075   -0.348917 C.3        1 UNL1     -0.0577
     50 O         -1.742833   -2.829797   2.026451 O.3        1 UNL1     -0.3910
     51 O         -4.353746   -2.728798   0.88725 O.3        1 UNL1     -0.3753
     52 C         -2.497051   0.350375   -0.196932 C.3        1 UNL1     -0.0564
     53 O         -1.876626   -1.801597   -2.58366 O.3        1 UNL1     -0.4608
     54 C         -1.555487   -2.657454   -3.604595 C.2        1 UNL1     0.3042
     55 O         -0.449534   -3.131159   -3.862103 O.2        1 UNL1     -0.2512
     56 C         -2.736232   -3.072122   -4.43562 C.3        1 UNL1     0.0332
     57 C         -2.960454   -4.514722   -0.301697 C.3        1 UNL1     -0.0567
     58 C         -5.094732   1.887213   3.024182 C.3        1 UNL1     0.0210
     59 C         -5.604319   -3.178153   1.406878 C.3        1 UNL1     0.0372
     60 C         -4.166798   -0.61384   1.838482 C.2        1 UNL1     -0.0208
     61 C         -4.182776   -1.050259   3.098652 C.2        1 UNL1     0.0882
     62 H         -0.02452   -0.174135   4.111876 H        1 UNL1     0.0365
     63 H         0.124669   1.279671   5.538207 H        1 UNL1     0.0576
     64 H         3.050743   2.168049   5.919844 H        1 UNL1     0.0615
     65 H         0.349758   3.167062   7.130014 H        1 UNL1     0.0622
     66 H         -5.286499   -1.07302   0.148641 H        1 UNL1     0.0645
     67 H         -3.905836   -0.542108   -1.371921 H        1 UNL1     0.0362
     68 H         -3.45333   -2.651443   -1.774313 H        1 UNL1     0.0741
     69 H         -1.205204   -3.879416   -1.092843 H        1 UNL1     0.0359
     70 H         -0.417564   -3.922236   0.999357 H        1 UNL1     0.0600
     71 H         1.171082   -2.486803   0.6523 H        1 UNL1     0.0348
     72 H         0.330004   -1.545428   2.735194 H        1 UNL1     0.0602
     73 H         -4.167766   0.428768   1.637944 H        1 UNL1     0.0628
     74 H         -4.124101   -2.099914   3.38851 H        1 UNL1     0.1022
     75 H         3.804098   4.949125   8.418283 H        1 UNL1     0.0279
     76 H         3.438201   6.037383   7.139567 H        1 UNL1     0.0279
     77 H         2.729442   6.231832   8.793395 H        1 UNL1     0.0279
     78 H         0.95392   6.748106   6.543619 H        1 UNL1     0.1553
     79 H         1.551813   5.674745   4.989064 H        1 UNL1     0.1484
     80 H         0.229695   4.618286   1.586801 H        1 UNL1     0.0317
     81 H         -0.673907   5.661395   2.67554 H        1 UNL1     0.0317
     82 H         1.416721   6.880727   3.336003 H        1 UNL1     0.0428
     83 H         1.125503   6.922688   1.611145 H        1 UNL1     0.0428
     84 H         3.977877   4.083609   2.991987 H        1 UNL1     0.0428
     85 H         3.256039   5.094634   4.194443 H        1 UNL1     0.0428
     86 H         2.32601   2.792897   3.945637 H        1 UNL1     0.0317
     87 H         1.864772   3.047134   2.32546 H        1 UNL1     0.0317
     88 H         3.696805   7.372752   2.508061 H        1 UNL1     0.0429
     89 H         4.705534   6.060135   1.895087 H        1 UNL1     0.0429
     90 H         3.815466   6.304807   -0.333365 H        1 UNL1     0.0308
     91 H         1.520755   7.887508   0.951103 H        1 UNL1     0.0233
     92 H         1.813986   7.821796   -0.805368 H        1 UNL1     0.0233
     93 H         1.390199   6.368168   0.073251 H        1 UNL1     0.0233
     94 H         3.849279   8.884356   -0.67065 H        1 UNL1     0.0233
     95 H         4.299977   8.921305   1.041026 H        1 UNL1     0.0233
     96 H         5.317618   8.047009   -0.12688 H        1 UNL1     0.0233
     97 H         -7.157551   3.967318   6.570233 H        1 UNL1     0.0280
     98 H         -6.874703   2.296036   6.975206 H        1 UNL1     0.0280
     99 H         -6.641545   3.561622   8.217648 H        1 UNL1     0.0280
     100 H         -5.007553   6.285349   7.676201 H        1 UNL1     0.2922
     101 H         0.59448   -2.16561   4.927936 H        1 UNL1     0.0236
     102 H         2.094023   -1.426909   5.614777 H        1 UNL1     0.0236
     103 H         2.09602   -2.19444   4.05709 H        1 UNL1     0.0236
     104 H         2.423238   -1.480743   1.161147 H        1 UNL1     0.2098
     105 H         1.162885   -0.910198   -0.911058 H        1 UNL1     0.0234
     106 H         -0.594394   -1.214197   -1.014261 H        1 UNL1     0.0234
     107 H         0.0   0.0   0.0 H        1 UNL1     0.0234
     108 H         -2.589539   -3.283797   1.851116 H        1 UNL1     0.2098
     109 H         -2.91347   0.847013   0.690569 H        1 UNL1     0.0234
     110 H         -1.423597   0.185439   -0.054684 H        1 UNL1     0.0234
     111 H         -2.547577   1.093053   -1.004288 H        1 UNL1     0.0234
     112 H         -2.41564   -3.768537   -5.216371 H        1 UNL1     0.0342
     113 H         -3.531988   -3.50338   -3.830118 H        1 UNL1     0.0342
     114 H         -3.140519   -2.17701   -4.928055 H        1 UNL1     0.0342
     115 H         -2.50144   -5.431788   0.092617 H        1 UNL1     0.0234
     116 H         -3.804694   -4.266068   0.344428 H        1 UNL1     0.0234
     117 H         -3.362732   -4.874652   -1.264279 H        1 UNL1     0.0234
     118 H         -5.726706   1.238749   2.39243 H        1 UNL1     0.0309
     119 H         -5.678995   2.75649   3.342296 H        1 UNL1     0.0309
     120 H         -4.342955   2.267009   2.323687 H        1 UNL1     0.0309
     121 H         -5.408365   -4.051162   2.028822 H        1 UNL1     0.0524
     122 H         -6.089883   -2.419541   2.043095 H        1 UNL1     0.0524
     123 H         -6.276597   -3.439822   0.59468 H        1 UNL1     0.0524
@<TRIPOS>BOND
     1     1     2    1
     2     1    42    1
     3     2     3    2
     4     3     4    1
     5     4     5    2
     6     5     7    1
     7     6    75    1
     8     6    76    1
     9     6    77    1
    10     7     9   am
    11     9    10    1
    12    10    11    2
    13    10    43    1
    14    11    14    1
    15    11    15    1
    16    12    13   ar
    17    12    27   ar
    18    12    43    1
    19    13    14    1
    20    13    30   ar
    21    14    17    2
    22    15    16    1
    23    16    17    1
    24    16    18    1
    25    16    22    1
    26    18    19    1
    27    19    20    1
    28    20    21    1
    29    21    22    1
    30    23    24    1
    31    23    88    1
    32    23    89    1
    33    24    25    1
    34    24    26    1
    35    24    90    1
    36    25    91    1
    37    25    92    1
    38    25    93    1
    39    26    94    1
    40    26    95    1
    41    26    96    1
    42    27    28   ar
    43    28    29   ar
    44    29    30   ar
    45    29    31    1
    46    30    33    1
    47    31    32    1
    48    32    33    1
    49    32    35    1
    50    34    97    1
    51    34    98    1
    52    34    99    1
    53    35    61    1
    54    36    37    1
    55    36    60    1
    56    37    38    1
    57    38    39    1
    58    39    40    1
    59    40    41    1
    60    41    42    1
    61    45   100    1
    62    47   101    1
    63    47   102    1
    64    47   103    1
    65    48   104    1
    66    49   105    1
    67    49   106    1
    68    49   107    1
    69    50   108    1
    70    51    59    1
    71    52   109    1
    72    52   110    1
    73    52   111    1
    74    53    54    1
    75    54    55    2
    76    54    56    1
    77    56   112    1
    78    56   113    1
    79    56   114    1
    80    57   115    1
    81    57   116    1
    82    57   117    1
    83    58   118    1
    84    58   119    1
    85    58   120    1
    86    59   121    1
    87    59   122    1
    88    59   123    1
    89    60    61    2
    90     1    47    1
    91     1    62    1
    92     2    63    1
    93     3    64    1
    94     4    65    1
    95     5     6    1
    96     7     8    2
    97     9    78    1
    98    15    79    1
    99    18    80    1
   100    18    81    1
   101    19    82    1
   102    19    83    1
   103    20    23    1
   104    21    84    1
   105    21    85    1
   106    22    86    1
   107    22    87    1
   108    27    45    1
   109    28    34    1
   110    32    58    1
   111    33    46    2
   112    36    51    1
   113    36    66    1
   114    37    52    1
   115    37    67    1
   116    38    53    1
   117    38    68    1
   118    42    48    1
   119    42    72    1
   120    43    44    2
   121    60    73    1
   122    61    74    1
   123    39    69    1
   124    39    57    1
   125    40    70    1
   126    40    50    1
   127    41    71    1
   128    41    49    1
