@<TRIPOS>MOLECULE
*****
 123 128 0 0 0
SMALL
GASTEIGER

@<TRIPOS>ATOM
     1 C         -0.169197   0.972385   4.027233 C.3        1 UNL1     0.0009
     2 C         -1.537709   0.592026   5.218677 C.2        1 UNL1     -0.0787
     3 C         -2.714137   1.005952   5.954019 C.2        1 UNL1     -0.0649
     4 C         -3.725664   0.052933   6.920935 C.2        1 UNL1     -0.0542
     5 C         -5.008768   -0.046877   7.513185 C.2        1 UNL1     0.0115
     6 C         -6.318652   0.732779   7.812626 C.3        1 UNL1     -0.0348
     7 C         -5.522814   -1.48214   8.015943 C.2        1 UNL1     0.2441
     8 O         -5.519665   -1.815192   9.193055 O.2        1 UNL1     -0.2702
     9 N         -6.217702   -2.230429   7.049845 N.am        1 UNL1     -0.2772
     10 C         -5.341034   -2.986686   6.306306 C.2        1 UNL1     0.1049
     11 C         -4.744615   -2.368188   5.303327 C.2        1 UNL1     0.0801
     12 C         -3.422635   -4.578234   6.516199 C.ar        1 UNL1     0.0753
     13 C         -2.734073   -3.749831   5.573734 C.ar        1 UNL1     0.0305
     14 C         -3.423098   -2.691796   4.838305 C.2        1 UNL1     0.0924
     15 N         -5.003953   -1.171139   4.749841 N.pl3        1 UNL1     -0.3170
     16 C         -4.178873   -1.040701   3.578312 C.3        1 UNL1     0.1275
     17 N         -2.97368   -1.901984   3.867146 N.2        1 UNL1     -0.2557
     18 C         -4.917231   -1.71773   2.42759 C.3        1 UNL1     0.0016
     19 C         -6.295705   -1.089609   2.297731 C.3        1 UNL1     0.0026
     20 N         -6.13832   0.337224   2.051955 N.3        1 UNL1     -0.3018
     21 C         -5.386007   1.065209   3.075884 C.3        1 UNL1     0.0026
     22 C         -4.003246   0.420494   3.186377 C.3        1 UNL1     0.0016
     23 C         -7.366185   0.973578   1.618312 C.3        1 UNL1     0.0012
     24 C         -7.731473   0.525225   0.194479 C.3        1 UNL1     -0.0339
     25 C         -8.412434   1.656073   -0.593894 C.3        1 UNL1     -0.0615
     26 C         -6.495689   0.009629   -0.522306 C.3        1 UNL1     -0.0615
     27 C         -2.790046   -5.660706   7.122997 C.ar        1 UNL1     0.1347
     28 C         -1.489074   -6.035545   6.838362 C.ar        1 UNL1     0.0342
     29 C         -0.815233   -5.176457   5.944455 C.ar        1 UNL1     0.1435
     30 C         -1.424711   -4.067417   5.356419 C.ar        1 UNL1     0.0774
     31 O         0.420507   -5.468201   5.483109 O.3        1 UNL1     -0.4436
     32 C         0.561848   -4.672535   4.296598 C.3        1 UNL1     0.3143
     33 C         -0.416221   -3.52794   4.468343 C.2        1 UNL1     0.2504
     34 C         -0.830736   -7.321267   7.255027 C.3        1 UNL1     -0.0327
     35 O         1.877095   -4.10431   4.318933 O.2        1 UNL1     -0.4528
     36 C         2.896914   -3.697781   0.685368 C.3        1 UNL1     0.0854
     37 C         2.176067   -2.899961   -0.468488 C.3        1 UNL1     0.0236
     38 C         3.09024   -1.811285   -1.210659 C.3        1 UNL1     0.1131
     39 C         3.897489   -0.75131   -0.357974 C.3        1 UNL1     0.0200
     40 C         3.177546   0.017158   0.935694 C.3        1 UNL1     0.0661
     41 C         1.666985   0.788842   0.917872 C.3        1 UNL1     0.0091
     42 C         0.410612   0.976016   2.241465 C.3        1 UNL1     0.0661
     43 C         -4.860071   -4.300524   6.75892 C.2        1 UNL1     0.2131
     44 O         -5.638813   -5.123924   7.204241 O.2        1 UNL1     -0.2851
     45 O         -3.516788   -6.388598   8.062921 O.3        1 UNL1     -0.5056
     46 O         -0.363242   -2.414257   3.996371 O.2        1 UNL1     -0.2836
     47 C         0.913383   1.849639   4.71165 C.3        1 UNL1     -0.0566
     48 O         0.214967   2.427311   2.007841 O.3        1 UNL1     -0.3909
     49 C         0.927681   0.385397   -0.338375 C.3        1 UNL1     -0.0577
     50 O         3.313672   -0.751285   2.11412 O.3        1 UNL1     -0.3910
     51 O         4.183951   -3.243068   1.037793 O.3        1 UNL1     -0.3753
     52 C         0.670094   -2.636304   -0.140648 C.3        1 UNL1     -0.0564
     53 O         2.511754   -1.324725   -2.507169 O.3        1 UNL1     -0.4608
     54 C         2.356621   -0.011119   -2.865364 C.2        1 UNL1     0.3042
     55 O         2.715401   0.524659   -3.913246 O.2        1 UNL1     -0.2512
     56 C         1.609247   0.80502   -1.849459 C.3        1 UNL1     0.0332
     57 C         5.378161   -1.321482   -0.156257 C.3        1 UNL1     -0.0567
     58 C         0.09253   -5.557213   3.118202 C.3        1 UNL1     0.0210
     59 C         5.25147   -4.108033   0.65295 C.3        1 UNL1     0.0372
     60 C         2.120979   -3.812662   1.950235 C.2        1 UNL1     -0.0208
     61 C         2.504005   -3.649091   3.217232 C.2        1 UNL1     0.0882
     62 H         0.169452   -0.067078   4.114089 H        1 UNL1     0.0365
     63 H         -1.27437   -0.426083   5.512918 H        1 UNL1     0.0576
     64 H         -3.162942   1.99109   5.808468 H        1 UNL1     0.0615
     65 H         -3.15391   -0.867309   7.068362 H        1 UNL1     0.0622
     66 H         2.991532   -4.721212   0.295903 H        1 UNL1     0.0645
     67 H         2.03651   -3.649976   -1.266336 H        1 UNL1     0.0362
     68 H         3.851609   -2.476395   -1.645938 H        1 UNL1     0.0741
     69 H         4.173932   0.074208   -1.000243 H        1 UNL1     0.0359
     70 H         3.881437   0.860306   1.072439 H        1 UNL1     0.0600
     71 H         1.979969   1.820524   0.663647 H        1 UNL1     0.0348
     72 H         1.354245   0.733074   2.751221 H        1 UNL1     0.0602
     73 H         1.153319   -4.191811   1.733144 H        1 UNL1     0.0628
     74 H         3.455401   -3.212038   3.522302 H        1 UNL1     0.1022
     75 H         -6.087489   1.73699   8.242925 H        1 UNL1     0.0279
     76 H         -6.94113   0.982484   6.956333 H        1 UNL1     0.0279
     77 H         -6.907296   0.279649   8.623719 H        1 UNL1     0.0279
     78 H         -6.698087   -1.601036   6.410179 H        1 UNL1     0.1553
     79 H         -5.874433   -0.683976   4.858787 H        1 UNL1     0.1484
     80 H         -4.333308   -1.595998   1.507274 H        1 UNL1     0.0317
     81 H         -5.007916   -2.795388   2.601026 H        1 UNL1     0.0317
     82 H         -6.911905   -1.271878   3.190472 H        1 UNL1     0.0428
     83 H         -6.805571   -1.588217   1.472821 H        1 UNL1     0.0428
     84 H         -5.213624   2.117307   2.828525 H        1 UNL1     0.0428
     85 H         -5.92626   1.100983   4.032003 H        1 UNL1     0.0428
     86 H         -3.438871   1.05647   3.842886 H        1 UNL1     0.0317
     87 H         -3.472027   0.506985   2.230646 H        1 UNL1     0.0317
     88 H         -8.170027   0.664355   2.29913 H        1 UNL1     0.0429
     89 H         -7.292999   2.066865   1.682669 H        1 UNL1     0.0429
     90 H         -8.421283   -0.325139   0.251541 H        1 UNL1     0.0308
     91 H         -7.875319   2.60204   -0.476608 H        1 UNL1     0.0233
     92 H         -8.470595   1.405953   -1.65581 H        1 UNL1     0.0233
     93 H         -9.443494   1.832709   -0.264426 H        1 UNL1     0.0233
     94 H         -6.641052   0.056533   -1.606974 H        1 UNL1     0.0233
     95 H         -5.63146   0.63078   -0.270825 H        1 UNL1     0.0233
     96 H         -6.277911   -1.026187   -0.247305 H        1 UNL1     0.0233
     97 H         -0.480577   -7.894835   6.40201 H        1 UNL1     0.0280
     98 H         0.05223   -7.149108   7.884304 H        1 UNL1     0.0280
     99 H         -1.550777   -7.939893   7.815328 H        1 UNL1     0.0280
     100 H         -3.945078   -5.865308   8.717412 H        1 UNL1     0.2922
     101 H         1.7859   1.240345   4.946453 H        1 UNL1     0.0236
     102 H         0.541956   2.385614   5.584437 H        1 UNL1     0.0236
     103 H         1.294307   2.636712   4.039634 H        1 UNL1     0.0236
     104 H         -0.408965   2.753667   2.685463 H        1 UNL1     0.2098
     105 H         0.71833   1.206379   -1.019529 H        1 UNL1     0.0234
     106 H         1.371261   -0.450452   -0.879225 H        1 UNL1     0.0234
     107 H         0.0   -0.0   0.0 H        1 UNL1     0.0234
     108 H         2.645642   -0.428956   2.749421 H        1 UNL1     0.2098
     109 H         0.542714   -1.997412   0.744396 H        1 UNL1     0.0234
     110 H         0.114398   -2.210446   -0.983019 H        1 UNL1     0.0234
     111 H         0.136085   -3.56862   0.086437 H        1 UNL1     0.0234
     112 H         1.430831   1.811801   -2.239209 H        1 UNL1     0.0342
     113 H         0.67581   0.330983   -1.549746 H        1 UNL1     0.0342
     114 H         2.238383   0.89735   -0.953452 H        1 UNL1     0.0342
     115 H         5.842433   -1.599726   -1.112405 H        1 UNL1     0.0234
     116 H         6.055346   -0.629647   0.348553 H        1 UNL1     0.0234
     117 H         5.40936   -2.283465   0.383704 H        1 UNL1     0.0234
     118 H         -0.610235   -6.343762   3.444498 H        1 UNL1     0.0309
     119 H         -0.364251   -4.98347   2.305569 H        1 UNL1     0.0309
     120 H         0.913292   -6.123966   2.665162 H        1 UNL1     0.0309
     121 H         5.375458   -4.018838   -0.425951 H        1 UNL1     0.0524
     122 H         6.208761   -3.825225   1.12162 H        1 UNL1     0.0524
     123 H         5.018027   -5.134867   0.919801 H        1 UNL1     0.0524
@<TRIPOS>BOND
     1     1     2    1
     2     1    42    1
     3     2     3    2
     4     3     4    1
     5     4     5    2
     6     5     7    1
     7     6    75    1
     8     6    76    1
     9     6    77    1
    10     7     9   am
    11     9    10    1
    12    10    11    2
    13    10    43    1
    14    11    14    1
    15    11    15    1
    16    12    13   ar
    17    12    27   ar
    18    12    43    1
    19    13    14    1
    20    13    30   ar
    21    14    17    2
    22    15    16    1
    23    16    17    1
    24    16    18    1
    25    16    22    1
    26    18    19    1
    27    19    20    1
    28    20    21    1
    29    21    22    1
    30    23    24    1
    31    23    88    1
    32    23    89    1
    33    24    25    1
    34    24    26    1
    35    24    90    1
    36    25    91    1
    37    25    92    1
    38    25    93    1
    39    26    94    1
    40    26    95    1
    41    26    96    1
    42    27    28   ar
    43    28    29   ar
    44    29    30   ar
    45    29    31    1
    46    30    33    1
    47    31    32    1
    48    32    33    1
    49    32    35    1
    50    34    97    1
    51    34    98    1
    52    34    99    1
    53    35    61    1
    54    36    37    1
    55    36    60    1
    56    37    38    1
    57    38    39    1
    58    39    40    1
    59    40    41    1
    60    41    42    1
    61    45   100    1
    62    47   101    1
    63    47   102    1
    64    47   103    1
    65    48   104    1
    66    49   105    1
    67    49   106    1
    68    49   107    1
    69    50   108    1
    70    51    59    1
    71    52   109    1
    72    52   110    1
    73    52   111    1
    74    53    54    1
    75    54    55    2
    76    54    56    1
    77    56   112    1
    78    56   113    1
    79    56   114    1
    80    57   115    1
    81    57   116    1
    82    57   117    1
    83    58   118    1
    84    58   119    1
    85    58   120    1
    86    59   121    1
    87    59   122    1
    88    59   123    1
    89    60    61    2
    90     1    47    1
    91     1    62    1
    92     2    63    1
    93     3    64    1
    94     4    65    1
    95     5     6    1
    96     7     8    2
    97     9    78    1
    98    15    79    1
    99    18    80    1
   100    18    81    1
   101    19    82    1
   102    19    83    1
   103    20    23    1
   104    21    84    1
   105    21    85    1
   106    22    86    1
   107    22    87    1
   108    27    45    1
   109    28    34    1
   110    32    58    1
   111    33    46    2
   112    36    51    1
   113    36    66    1
   114    37    52    1
   115    37    67    1
   116    38    53    1
   117    38    68    1
   118    42    48    1
   119    42    72    1
   120    43    44    2
   121    60    73    1
   122    61    74    1
   123    39    69    1
   124    39    57    1
   125    40    70    1
   126    40    50    1
   127    41    71    1
   128    41    49    1
