@<TRIPOS>MOLECULE
*****
 123 128 0 0 0
SMALL
GASTEIGER

@<TRIPOS>ATOM
     1 C         -4.134076   -0.094972   -0.711399 C.3        1 UNL1     0.0009
     2 C         -4.993816   -0.095722   -2.353922 C.2        1 UNL1     -0.0787
     3 C         -5.739686   0.599768   -3.38155 C.2        1 UNL1     -0.0649
     4 C         -6.206309   0.019087   -4.901888 C.2        1 UNL1     -0.0542
     5 C         -6.621506   0.383344   -6.206498 C.2        1 UNL1     0.0115
     6 C         -7.089145   1.57227   -7.090292 C.3        1 UNL1     -0.0348
     7 C         -6.517144   -0.700602   -7.385971 C.2        1 UNL1     0.2441
     8 O         -7.484002   -1.319989   -7.807958 O.2        1 UNL1     -0.2702
     9 N         -5.293484   -0.702109   -8.077929 N.am        1 UNL1     -0.2772
     10 C         -4.390814   -1.533349   -7.455395 C.2        1 UNL1     0.1049
     11 C         -3.735829   -1.01819   -6.430784 C.2        1 UNL1     0.0801
     12 C         -4.139861   -3.834884   -6.50814 C.ar        1 UNL1     0.0753
     13 C         -3.625523   -3.208417   -5.328478 C.ar        1 UNL1     0.0305
     14 C         -3.284571   -1.787796   -5.303198 C.2        1 UNL1     0.0924
     15 N         -3.647031   0.256942   -6.015235 N.pl3        1 UNL1     -0.3170
     16 C         -2.672454   0.307675   -4.957937 C.3        1 UNL1     0.1275
     17 N         -2.711442   -1.069454   -4.341723 N.2        1 UNL1     -0.2557
     18 C         -1.300966   0.439768   -5.613128 C.3        1 UNL1     0.0016
     19 C         -1.309866   1.661619   -6.517889 C.3        1 UNL1     0.0026
     20 N         -1.622303   2.835879   -5.715067 N.3        1 UNL1     -0.3018
     21 C         -2.896301   2.776064   -4.995538 C.3        1 UNL1     0.0026
     22 C         -2.863647   1.544076   -4.089429 C.3        1 UNL1     0.0016
     23 C         -1.364266   4.080309   -6.411813 C.3        1 UNL1     0.0012
     24 C         0.147466   4.300801   -6.578557 C.3        1 UNL1     -0.0339
     25 C         0.728085   3.403603   -7.683987 C.3        1 UNL1     -0.0615
     26 C         0.433665   5.768904   -6.842272 C.3        1 UNL1     -0.0615
     27 C         -4.348431   -5.211003   -6.562107 C.ar        1 UNL1     0.1347
     28 C         -4.043692   -6.06554   -5.51762 C.ar        1 UNL1     0.0342
     29 C         -3.58457   -5.42076   -4.349447 C.ar        1 UNL1     0.1435
     30 C         -3.40494   -4.039309   -4.268537 C.ar        1 UNL1     0.0774
     31 O         -3.142078   -6.123723   -3.28406 O.3        1 UNL1     -0.4436
     32 C         -2.34861   -5.189178   -2.537129 C.3        1 UNL1     0.3143
     33 C         -2.857997   -3.821726   -2.945556 C.2        1 UNL1     0.2504
     34 C         -4.002903   -7.566618   -5.589746 C.3        1 UNL1     -0.0327
     35 O         -2.678287   -5.360963   -1.153274 O.2        1 UNL1     -0.4528
     36 C         0.459132   -4.459246   0.78363 C.3        1 UNL1     0.0854
     37 C         1.286231   -3.116385   0.771228 C.3        1 UNL1     0.0236
     38 C         1.501841   -2.442106   2.210187 C.3        1 UNL1     0.1131
     39 C         0.259383   -2.204326   3.159939 C.3        1 UNL1     0.0200
     40 C         -1.168938   -1.598811   2.547004 C.3        1 UNL1     0.0661
     41 C         -1.324816   -0.227254   1.561031 C.3        1 UNL1     0.0091
     42 C         -2.525422   0.148218   0.225752 C.3        1 UNL1     0.0661
     43 C         -4.3596   -2.982527   -7.702905 C.2        1 UNL1     0.2131
     44 O         -4.408711   -3.416589   -8.839529 O.2        1 UNL1     -0.2851
     45 O         -4.894762   -5.735281   -7.731762 O.3        1 UNL1     -0.5056
     46 O         -2.837238   -2.789901   -2.3125 O.2        1 UNL1     -0.2836
     47 C         -5.173739   -0.091994   0.441455 C.3        1 UNL1     -0.0566
     48 O         -2.831689   1.5095   0.727974 O.3        1 UNL1     -0.3909
     49 C         0.043172   0.162016   1.046665 C.3        1 UNL1     -0.0577
     50 O         -1.985808   -2.642405   2.055721 O.3        1 UNL1     -0.3910
     51 O         -0.132045   -4.8073   2.015214 O.3        1 UNL1     -0.3753
     52 C         0.998021   -2.26735   -0.509796 C.3        1 UNL1     -0.0564
     53 O         2.565575   -1.383521   2.224065 O.3        1 UNL1     -0.4608
     54 C         3.081722   -0.789633   3.346036 C.2        1 UNL1     0.3042
     55 O         3.645919   -1.340709   4.290407 O.2        1 UNL1     -0.2512
     56 C         2.965894   0.708123   3.341064 C.3        1 UNL1     0.0332
     57 C         0.172631   -3.448546   4.16122 C.3        1 UNL1     -0.0567
     58 C         -0.894808   -5.350381   -3.039126 C.3        1 UNL1     0.0210
     59 C         -0.921102   -5.995762   1.986695 C.3        1 UNL1     0.0372
     60 C         -0.611314   -4.548021   -0.246625 C.2        1 UNL1     -0.0208
     61 C         -1.873734   -4.96665   -0.14769 C.2        1 UNL1     0.0882
     62 H         -3.855095   -1.14233   -0.878504 H        1 UNL1     0.0365
     63 H         -4.909115   -1.149484   -2.627567 H        1 UNL1     0.0576
     64 H         -5.935946   1.672496   -3.319537 H        1 UNL1     0.0615
     65 H         -6.045032   -1.059908   -4.829481 H        1 UNL1     0.0622
     66 H         1.191516   -5.23691   0.524981 H        1 UNL1     0.0645
     67 H         2.313093   -3.43628   0.522669 H        1 UNL1     0.0362
     68 H         2.093991   -3.232175   2.696676 H        1 UNL1     0.0741
     69 H         0.52774   -1.468786   3.906513 H        1 UNL1     0.0359
     70 H         -1.660472   -1.281802   3.486664 H        1 UNL1     0.0600
     71 H         -1.494818   0.547967   2.333746 H        1 UNL1     0.0348
     72 H         -2.978255   -0.656241   0.823335 H        1 UNL1     0.0602
     73 H         -0.197371   -4.331066   -1.199952 H        1 UNL1     0.0628
     74 H         -2.389355   -5.153542   0.794883 H        1 UNL1     0.1022
     75 H         -7.876374   2.165196   -6.565178 H        1 UNL1     0.0279
     76 H         -6.34194   2.328058   -7.321677 H        1 UNL1     0.0279
     77 H         -7.628597   1.24585   -7.991481 H        1 UNL1     0.0279
     78 H         -4.89817   0.235868   -8.075776 H        1 UNL1     0.1553
     79 H         -3.862964   1.047689   -6.594048 H        1 UNL1     0.1484
     80 H         -0.537683   0.526531   -4.830417 H        1 UNL1     0.0317
     81 H         -1.055813   -0.457177   -6.191955 H        1 UNL1     0.0317
     82 H         -2.022786   1.548453   -7.34786 H        1 UNL1     0.0428
     83 H         -0.323243   1.73597   -6.976251 H        1 UNL1     0.0428
     84 H         -3.069672   3.633997   -4.338495 H        1 UNL1     0.0428
     85 H         -3.754317   2.787912   -5.681822 H        1 UNL1     0.0428
     86 H         -3.749285   1.60593   -3.484609 H        1 UNL1     0.0317
     87 H         -2.050574   1.637473   -3.359165 H        1 UNL1     0.0317
     88 H         -1.819891   4.014526   -7.408494 H        1 UNL1     0.0429
     89 H         -1.834071   4.929369   -5.898826 H        1 UNL1     0.0429
     90 H         0.65153   4.062251   -5.634509 H        1 UNL1     0.0308
     91 H         1.511137   2.747042   -7.293014 H        1 UNL1     0.0233
     92 H         -0.056497   2.794534   -8.139042 H        1 UNL1     0.0233
     93 H         1.176923   3.983334   -8.49964 H        1 UNL1     0.0233
     94 H         0.682997   6.279281   -5.905691 H        1 UNL1     0.0233
     95 H         1.288045   5.867552   -7.517747 H        1 UNL1     0.0233
     96 H         -0.429568   6.269676   -7.289512 H        1 UNL1     0.0233
     97 H         -4.995666   -8.003998   -5.541258 H        1 UNL1     0.0280
     98 H         -3.562661   -7.923946   -6.529831 H        1 UNL1     0.0280
     99 H         -3.410239   -7.960568   -4.747934 H        1 UNL1     0.0280
     100 H         -4.362107   -5.619435   -8.498887 H        1 UNL1     0.2922
     101 H         -5.474815   0.931822   0.662385 H        1 UNL1     0.0236
     102 H         -4.828804   -0.617876   1.33109 H        1 UNL1     0.0236
     103 H         -6.108553   -0.603496   0.157407 H        1 UNL1     0.0236
     104 H         -3.606406   1.839465   0.232083 H        1 UNL1     0.2098
     105 H         0.305141   1.204135   1.211502 H        1 UNL1     0.0234
     106 H         0.854631   -0.48783   1.37402 H        1 UNL1     0.0234
     107 H         0.0   0.0   0.0 H        1 UNL1     0.0234
     108 H         -1.671216   -3.472859   2.462103 H        1 UNL1     0.2098
     109 H         1.036941   -1.187318   -0.310475 H        1 UNL1     0.0234
     110 H         1.663163   -2.509913   -1.345555 H        1 UNL1     0.0234
     111 H         -0.00799   -2.460513   -0.905495 H        1 UNL1     0.0234
     112 H         2.68745   1.063169   4.337938 H        1 UNL1     0.0342
     113 H         3.880461   1.188472   2.996572 H        1 UNL1     0.0342
     114 H         2.161298   0.987719   2.647079 H        1 UNL1     0.0342
     115 H         -0.532709   -3.263059   4.982974 H        1 UNL1     0.0234
     116 H         -0.120603   -4.384605   3.681786 H        1 UNL1     0.0234
     117 H         1.107199   -3.629992   4.719432 H        1 UNL1     0.0234
     118 H         -0.318525   -6.059693   -2.419626 H        1 UNL1     0.0309
     119 H         -0.834054   -5.659197   -4.087527 H        1 UNL1     0.0309
     120 H         -0.318292   -4.422008   -2.962578 H        1 UNL1     0.0309
     121 H         -0.247094   -6.835009   1.817188 H        1 UNL1     0.0524
     122 H         -1.441357   -6.175559   2.942229 H        1 UNL1     0.0524
     123 H         -1.657109   -5.939213   1.189707 H        1 UNL1     0.0524
@<TRIPOS>BOND
     1     1     2    1
     2     1    42    1
     3     2     3    2
     4     3     4    1
     5     4     5    2
     6     5     7    1
     7     6    75    1
     8     6    76    1
     9     6    77    1
    10     7     9   am
    11     9    10    1
    12    10    11    2
    13    10    43    1
    14    11    14    1
    15    11    15    1
    16    12    13   ar
    17    12    27   ar
    18    12    43    1
    19    13    14    1
    20    13    30   ar
    21    14    17    2
    22    15    16    1
    23    16    17    1
    24    16    18    1
    25    16    22    1
    26    18    19    1
    27    19    20    1
    28    20    21    1
    29    21    22    1
    30    23    24    1
    31    23    88    1
    32    23    89    1
    33    24    25    1
    34    24    26    1
    35    24    90    1
    36    25    91    1
    37    25    92    1
    38    25    93    1
    39    26    94    1
    40    26    95    1
    41    26    96    1
    42    27    28   ar
    43    28    29   ar
    44    29    30   ar
    45    29    31    1
    46    30    33    1
    47    31    32    1
    48    32    33    1
    49    32    35    1
    50    34    97    1
    51    34    98    1
    52    34    99    1
    53    35    61    1
    54    36    37    1
    55    36    60    1
    56    37    38    1
    57    38    39    1
    58    39    40    1
    59    40    41    1
    60    41    42    1
    61    45   100    1
    62    47   101    1
    63    47   102    1
    64    47   103    1
    65    48   104    1
    66    49   105    1
    67    49   106    1
    68    49   107    1
    69    50   108    1
    70    51    59    1
    71    52   109    1
    72    52   110    1
    73    52   111    1
    74    53    54    1
    75    54    55    2
    76    54    56    1
    77    56   112    1
    78    56   113    1
    79    56   114    1
    80    57   115    1
    81    57   116    1
    82    57   117    1
    83    58   118    1
    84    58   119    1
    85    58   120    1
    86    59   121    1
    87    59   122    1
    88    59   123    1
    89    60    61    2
    90     1    47    1
    91     1    62    1
    92     2    63    1
    93     3    64    1
    94     4    65    1
    95     5     6    1
    96     7     8    2
    97     9    78    1
    98    15    79    1
    99    18    80    1
   100    18    81    1
   101    19    82    1
   102    19    83    1
   103    20    23    1
   104    21    84    1
   105    21    85    1
   106    22    86    1
   107    22    87    1
   108    27    45    1
   109    28    34    1
   110    32    58    1
   111    33    46    2
   112    36    51    1
   113    36    66    1
   114    37    52    1
   115    37    67    1
   116    38    53    1
   117    38    68    1
   118    42    48    1
   119    42    72    1
   120    43    44    2
   121    60    73    1
   122    61    74    1
   123    39    69    1
   124    39    57    1
   125    40    70    1
   126    40    50    1
   127    41    71    1
   128    41    49    1
