@<TRIPOS>MOLECULE
*****
 123 128 0 0 0
SMALL
GASTEIGER

@<TRIPOS>ATOM
     1 C         -1.899538   -2.2933   -4.332226 C.3        1 UNL1     0.0009
     2 C         -2.678137   -3.885196   -4.876916 C.2        1 UNL1     -0.0787
     3 C         -2.628378   -5.107282   -5.651561 C.2        1 UNL1     -0.0649
     4 C         -3.737736   -6.386219   -5.64995 C.2        1 UNL1     -0.0542
     5 C         -3.93271   -7.754447   -5.961423 C.2        1 UNL1     0.0115
     6 C         -3.302105   -8.98375   -6.671687 C.3        1 UNL1     -0.0348
     7 C         -5.177579   -8.529991   -5.308873 C.2        1 UNL1     0.2441
     8 O         -6.206195   -8.774159   -5.924388 O.2        1 UNL1     -0.2702
     9 N         -4.908898   -9.138282   -4.070348 N.am        1 UNL1     -0.2772
     10 C         -5.131506   -8.251925   -3.04169 C.2        1 UNL1     0.1049
     11 C         -4.146062   -7.415483   -2.770605 C.2        1 UNL1     0.0801
     12 C         -6.809867   -6.622352   -2.155727 C.ar        1 UNL1     0.0753
     13 C         -5.736186   -5.67915   -2.077071 C.ar        1 UNL1     0.0305
     14 C         -4.344767   -6.086845   -2.258148 C.2        1 UNL1     0.0924
     15 N         -2.870463   -7.417143   -3.194129 N.pl3        1 UNL1     -0.3170
     16 C         -2.166108   -6.391718   -2.47119 C.3        1 UNL1     0.1275
     17 N         -3.227995   -5.377155   -2.123655 N.2        1 UNL1     -0.2557
     18 C         -1.713436   -7.001195   -1.147813 C.3        1 UNL1     0.0016
     19 C         -0.88661   -8.242782   -1.44177 C.3        1 UNL1     0.0026
     20 N         0.255594   -7.861051   -2.260721 N.3        1 UNL1     -0.3018
     21 C         -0.078654   -7.209357   -3.528767 C.3        1 UNL1     0.0026
     22 C         -0.905117   -5.962387   -3.209517 C.3        1 UNL1     0.0016
     23 C         1.260478   -8.901901   -2.347226 C.3        1 UNL1     0.0012
     24 C         1.979135   -9.070117   -0.999268 C.3        1 UNL1     -0.0339
     25 C         3.456021   -9.4513   -1.193084 C.3        1 UNL1     -0.0615
     26 C         1.832202   -7.806517   -0.169505 C.3        1 UNL1     -0.0615
     27 C         -8.119974   -6.250645   -1.863197 C.ar        1 UNL1     0.1347
     28 C         -8.471952   -4.979977   -1.444192 C.ar        1 UNL1     0.0342
     29 C         -7.406068   -4.05557   -1.421232 C.ar        1 UNL1     0.1435
     30 C         -6.094711   -4.404513   -1.746505 C.ar        1 UNL1     0.0774
     31 O         -7.566349   -2.807168   -0.93051 O.3        1 UNL1     -0.4436
     32 C         -6.234674   -2.360168   -0.634359 C.3        1 UNL1     0.3143
     33 C         -5.330618   -3.195965   -1.517726 C.2        1 UNL1     0.2504
     34 C         -9.803559   -4.576614   -0.874788 C.3        1 UNL1     -0.0327
     35 O         -6.128403   -1.006143   -1.09106 O.2        1 UNL1     -0.4528
     36 C         -3.613438   0.671855   1.204014 C.3        1 UNL1     0.0854
     37 C         -2.117938   0.271759   1.505549 C.3        1 UNL1     0.0236
     38 C         -1.042933   1.434351   1.2516 C.3        1 UNL1     0.1131
     39 C         -1.038582   2.212507   -0.125616 C.3        1 UNL1     0.0200
     40 C         -1.211006   1.385427   -1.563895 C.3        1 UNL1     0.0661
     41 C         -0.329669   0.014143   -2.0334 C.3        1 UNL1     0.0091
     42 C         -0.819242   -1.417388   -3.070917 C.3        1 UNL1     0.0661
     43 C         -6.469304   -8.031609   -2.472382 C.2        1 UNL1     0.2131
     44 O         -7.185639   -8.976066   -2.19381 O.2        1 UNL1     -0.2851
     45 O         -9.112606   -7.217612   -2.008433 O.3        1 UNL1     -0.5056
     46 O         -4.235659   -2.917683   -1.953018 O.2        1 UNL1     -0.2836
     47 C         -1.970206   -1.240951   -5.471327 C.3        1 UNL1     -0.0566
     48 O         0.407562   -1.37923   -3.903151 O.3        1 UNL1     -0.3909
     49 C         0.387959   -0.542407   -0.823956 C.3        1 UNL1     -0.0577
     50 O         -2.577263   1.214247   -1.882895 O.3        1 UNL1     -0.3910
     51 O         -3.803642   1.926392   0.589693 O.3        1 UNL1     -0.3753
     52 C         -1.829955   -1.220982   1.139846 C.3        1 UNL1     -0.0564
     53 O         0.297704   1.157486   1.866713 O.3        1 UNL1     -0.4608
     54 C         1.332375   0.499076   1.255253 C.2        1 UNL1     0.3042
     55 O         1.688996   -0.664292   1.437554 O.2        1 UNL1     -0.2512
     56 C         2.038823   1.322491   0.216199 C.3        1 UNL1     0.0332
     57 C         -1.894567   3.548949   0.072851 C.3        1 UNL1     -0.0567
     58 C         -5.967937   -2.729194   0.843545 C.3        1 UNL1     0.0210
     59 C         -4.867771   1.973736   -0.359652 C.3        1 UNL1     0.0372
     60 C         -4.380087   -0.319739   0.401424 C.2        1 UNL1     -0.0208
     61 C         -5.198677   -0.144057   -0.636743 C.2        1 UNL1     0.0882
     62 H         -2.766493   -2.112879   -3.685273 H        1 UNL1     0.0365
     63 H         -3.653422   -3.811451   -4.391272 H        1 UNL1     0.0576
     64 H         -1.736856   -5.392137   -6.214725 H        1 UNL1     0.0615
     65 H         -4.61084   -5.973222   -5.1375 H        1 UNL1     0.0622
     66 H         -4.096365   0.69865   2.190984 H        1 UNL1     0.0645
     67 H         -2.082385   0.17624   2.604718 H        1 UNL1     0.0362
     68 H         -1.383779   2.166589   1.999379 H        1 UNL1     0.0741
     69 H         -0.080866   2.700988   -0.246333 H        1 UNL1     0.0359
     70 H         -0.856361   2.158531   -2.272131 H        1 UNL1     0.0600
     71 H         0.505125   0.49787   -2.577536 H        1 UNL1     0.0348
     72 H         -1.535987   -0.616062   -3.30215 H        1 UNL1     0.0602
     73 H         -4.295696   -1.276106   0.854734 H        1 UNL1     0.0628
     74 H         -5.297787   0.788716   -1.192935 H        1 UNL1     0.1022
     75 H         -2.929895   -8.702072   -7.686158 H        1 UNL1     0.0279
     76 H         -2.416026   -9.410627   -6.207244 H        1 UNL1     0.0279
     77 H         -4.04298   -9.757857   -6.919809 H        1 UNL1     0.0279
     78 H         -3.930068   -9.414609   -4.030183 H        1 UNL1     0.1553
     79 H         -2.412725   -8.222496   -3.579895 H        1 UNL1     0.1484
     80 H         -1.132747   -6.255859   -0.591001 H        1 UNL1     0.0317
     81 H         -2.573939   -7.259881   -0.5215 H        1 UNL1     0.0317
     82 H         -1.484717   -9.022722   -1.935604 H        1 UNL1     0.0428
     83 H         -0.575659   -8.662445   -0.484564 H        1 UNL1     0.0428
     84 H         0.796028   -6.861429   -4.087057 H        1 UNL1     0.0428
     85 H         -0.581226   -7.897787   -4.222166 H        1 UNL1     0.0428
     86 H         -1.017119   -5.442475   -4.142863 H        1 UNL1     0.0317
     87 H         -0.314289   -5.266949   -2.600925 H        1 UNL1     0.0317
     88 H         0.755173   -9.844816   -2.593947 H        1 UNL1     0.0429
     89 H         1.975777   -8.699466   -3.154779 H        1 UNL1     0.0429
     90 H         1.485957   -9.863991   -0.425898 H        1 UNL1     0.0308
     91 H         3.93222   -8.824275   -1.952805 H        1 UNL1     0.0233
     92 H         4.005887   -9.356614   -0.253781 H        1 UNL1     0.0233
     93 H         3.57978   -10.492   -1.516292 H        1 UNL1     0.0233
     94 H         2.626362   -7.754405   0.58311 H        1 UNL1     0.0233
     95 H         1.918158   -6.925622   -0.811843 H        1 UNL1     0.0233
     96 H         0.867061   -7.77622   0.343869 H        1 UNL1     0.0233
     97 H         -10.586061   -4.578367   -1.627727 H        1 UNL1     0.0280
     98 H         -10.142199   -5.263096   -0.087818 H        1 UNL1     0.0280
     99 H         -9.732115   -3.560689   -0.45302 H        1 UNL1     0.0280
     100 H         -9.074853   -7.915231   -1.377937 H        1 UNL1     0.2922
     101 H         -2.746179   -0.509044   -5.248088 H        1 UNL1     0.0236
     102 H         -2.098553   -1.685095   -6.457859 H        1 UNL1     0.0236
     103 H         -1.042028   -0.650314   -5.54765 H        1 UNL1     0.0236
     104 H         0.388015   -0.549795   -4.419509 H        1 UNL1     0.2098
     105 H         0.207635   -1.598812   -0.641464 H        1 UNL1     0.0234
     106 H         1.456545   -0.330361   -0.790976 H        1 UNL1     0.0234
     107 H         0.0   0.0   0.0 H        1 UNL1     0.0234
     108 H         -2.913749   2.077899   -2.19055 H        1 UNL1     0.2098
     109 H         -2.628501   -1.660347   0.525847 H        1 UNL1     0.0234
     110 H         -0.864632   -1.363699   0.642326 H        1 UNL1     0.0234
     111 H         -1.763202   -1.85168   2.036345 H        1 UNL1     0.0234
     112 H         2.836742   0.733484   -0.246122 H        1 UNL1     0.0342
     113 H         1.352767   1.709245   -0.53586 H        1 UNL1     0.0342
     114 H         2.502733   2.183072   0.717551 H        1 UNL1     0.0342
     115 H         -1.304944   4.448617   -0.151044 H        1 UNL1     0.0234
     116 H         -2.800458   3.590326   -0.535177 H        1 UNL1     0.0234
     117 H         -2.179877   3.73685   1.122248 H        1 UNL1     0.0234
     118 H         -4.925146   -3.052281   1.008494 H        1 UNL1     0.0309
     119 H         -6.205658   -1.917688   1.538635 H        1 UNL1     0.0309
     120 H         -6.555209   -3.593035   1.173692 H        1 UNL1     0.0309
     121 H         -4.642379   2.770404   -1.068083 H        1 UNL1     0.0524
     122 H         -4.959253   1.036014   -0.932666 H        1 UNL1     0.0524
     123 H         -5.810344   2.17379   0.141974 H        1 UNL1     0.0524
@<TRIPOS>BOND
     1     1     2    1
     2     1    42    1
     3     2     3    2
     4     3     4    1
     5     4     5    2
     6     5     7    1
     7     6    75    1
     8     6    76    1
     9     6    77    1
    10     7     9   am
    11     9    10    1
    12    10    11    2
    13    10    43    1
    14    11    14    1
    15    11    15    1
    16    12    13   ar
    17    12    27   ar
    18    12    43    1
    19    13    14    1
    20    13    30   ar
    21    14    17    2
    22    15    16    1
    23    16    17    1
    24    16    18    1
    25    16    22    1
    26    18    19    1
    27    19    20    1
    28    20    21    1
    29    21    22    1
    30    23    24    1
    31    23    88    1
    32    23    89    1
    33    24    25    1
    34    24    26    1
    35    24    90    1
    36    25    91    1
    37    25    92    1
    38    25    93    1
    39    26    94    1
    40    26    95    1
    41    26    96    1
    42    27    28   ar
    43    28    29   ar
    44    29    30   ar
    45    29    31    1
    46    30    33    1
    47    31    32    1
    48    32    33    1
    49    32    35    1
    50    34    97    1
    51    34    98    1
    52    34    99    1
    53    35    61    1
    54    36    37    1
    55    36    60    1
    56    37    38    1
    57    38    39    1
    58    39    40    1
    59    40    41    1
    60    41    42    1
    61    45   100    1
    62    47   101    1
    63    47   102    1
    64    47   103    1
    65    48   104    1
    66    49   105    1
    67    49   106    1
    68    49   107    1
    69    50   108    1
    70    51    59    1
    71    52   109    1
    72    52   110    1
    73    52   111    1
    74    53    54    1
    75    54    55    2
    76    54    56    1
    77    56   112    1
    78    56   113    1
    79    56   114    1
    80    57   115    1
    81    57   116    1
    82    57   117    1
    83    58   118    1
    84    58   119    1
    85    58   120    1
    86    59   121    1
    87    59   122    1
    88    59   123    1
    89    60    61    2
    90     1    47    1
    91     1    62    1
    92     2    63    1
    93     3    64    1
    94     4    65    1
    95     5     6    1
    96     7     8    2
    97     9    78    1
    98    15    79    1
    99    18    80    1
   100    18    81    1
   101    19    82    1
   102    19    83    1
   103    20    23    1
   104    21    84    1
   105    21    85    1
   106    22    86    1
   107    22    87    1
   108    27    45    1
   109    28    34    1
   110    32    58    1
   111    33    46    2
   112    36    51    1
   113    36    66    1
   114    37    52    1
   115    37    67    1
   116    38    53    1
   117    38    68    1
   118    42    48    1
   119    42    72    1
   120    43    44    2
   121    60    73    1
   122    61    74    1
   123    39    69    1
   124    39    57    1
   125    40    70    1
   126    40    50    1
   127    41    71    1
   128    41    49    1
