@<TRIPOS>MOLECULE
*****
 123 128 0 0 0
SMALL
GASTEIGER

@<TRIPOS>ATOM
     1 C         -0.204298   1.551173   3.892741 C.3        1 UNL1     0.0009
     2 C         -1.647676   1.489495   5.054589 C.2        1 UNL1     -0.0787
     3 C         -2.769587   2.138652   5.699537 C.2        1 UNL1     -0.0649
     4 C         -3.939244   1.439632   6.704342 C.2        1 UNL1     -0.0542
     5 C         -5.239226   1.584908   7.248418 C.2        1 UNL1     0.0115
     6 C         -6.425997   2.572351   7.421206 C.3        1 UNL1     -0.0348
     7 C         -5.975961   0.294334   7.855566 C.2        1 UNL1     0.2441
     8 O         -6.056149   0.077562   9.056859 O.2        1 UNL1     -0.2702
     9 N         -6.746964   -0.432676   6.931898 N.am        1 UNL1     -0.2772
     10 C         -5.972216   -1.375933   6.296798 C.2        1 UNL1     0.1049
     11 C         -5.261768   -0.949121   5.268538 C.2        1 UNL1     0.0801
     12 C         -4.319766   -3.203419   6.729278 C.ar        1 UNL1     0.0753
     13 C         -3.488627   -2.577626   5.746324 C.ar        1 UNL1     0.0305
     14 C         -3.990676   -1.504888   4.890619 C.2        1 UNL1     0.0924
     15 N         -5.323554   0.215013   4.599582 N.pl3        1 UNL1     -0.3170
     16 C         -4.455178   0.111841   3.456982 C.3        1 UNL1     0.1275
     17 N         -3.400846   -0.884893   3.872467 N.2        1 UNL1     -0.2557
     18 C         -5.253241   -0.55616   2.341378 C.3        1 UNL1     0.0016
     19 C         -6.518191   0.25136   2.097655 C.3        1 UNL1     0.0026
     20 N         -6.142559   1.610096   1.731915 N.3        1 UNL1     -0.3018
     21 C         -5.319478   2.31421   2.717374 C.3        1 UNL1     0.0026
     22 C         -4.052216   1.487886   2.943493 C.3        1 UNL1     0.0016
     23 C         -7.248758   2.374913   1.191526 C.3        1 UNL1     0.0012
     24 C         -7.636151   1.851705   -0.200572 C.3        1 UNL1     -0.0339
     25 C         -9.020881   1.18362   -0.184954 C.3        1 UNL1     -0.0615
     26 C         -7.570426   2.978207   -1.21716 C.3        1 UNL1     -0.0615
     27 C         -3.87348   -4.304181   7.456789 C.ar        1 UNL1     0.1347
     28 C         -2.635488   -4.890286   7.262092 C.ar        1 UNL1     0.0342
     29 C         -1.815701   -4.227521   6.324086 C.ar        1 UNL1     0.1435
     30 C         -2.235714   -3.102193   5.613841 C.ar        1 UNL1     0.0774
     31 O         -0.624736   -4.739035   5.943347 O.3        1 UNL1     -0.4436
     32 C         -0.332387   -4.08871   4.697361 C.3        1 UNL1     0.3143
     33 C         -1.133062   -2.802475   4.724406 C.2        1 UNL1     0.2504
     34 C         -2.18868   -6.212986   7.8197 C.3        1 UNL1     -0.0327
     35 O         1.051788   -3.719129   4.724244 O.2        1 UNL1     -0.4528
     36 C         2.224074   -3.812396   1.115209 C.3        1 UNL1     0.0854
     37 C         1.663648   -3.030938   -0.134898 C.3        1 UNL1     0.0236
     38 C         2.75093   -2.162799   -0.932329 C.3        1 UNL1     0.1131
     39 C         3.682767   -1.156032   -0.144693 C.3        1 UNL1     0.0200
     40 C         3.049057   -0.171458   1.043357 C.3        1 UNL1     0.0661
     41 C         1.671798   0.807349   0.89268 C.3        1 UNL1     0.0091
     42 C         0.420237   1.30069   2.139922 C.3        1 UNL1     0.0661
     43 C         -5.705945   -2.697006   6.885204 C.2        1 UNL1     0.2131
     44 O         -6.611292   -3.351857   7.369202 O.2        1 UNL1     -0.2851
     45 O         -4.727273   -4.825664   8.426598 O.3        1 UNL1     -0.5056
     46 O         -0.900934   -1.758313   4.157224 O.2        1 UNL1     -0.2836
     47 C         0.977182   2.32184   4.540938 C.3        1 UNL1     -0.0566
     48 O         0.45025   2.736223   1.769168 O.3        1 UNL1     -0.3909
     49 C         0.916664   0.39888   -0.352479 C.3        1 UNL1     -0.0577
     50 O         3.035245   -0.836264   2.29058 O.3        1 UNL1     -0.3910
     51 O         3.554003   -3.519163   1.479535 O.3        1 UNL1     -0.3753
     52 C         0.205203   -2.520279   0.104092 C.3        1 UNL1     -0.0564
     53 O         2.288798   -1.722166   -2.290491 O.3        1 UNL1     -0.4608
     54 C         2.821711   -0.688221   -3.014985 C.2        1 UNL1     0.3042
     55 O         2.538132   0.506139   -2.931765 O.2        1 UNL1     -0.2512
     56 C         3.9077   -1.114129   -3.961527 C.3        1 UNL1     0.0332
     57 C         5.055331   -1.914598   0.169661 C.3        1 UNL1     -0.0567
     58 C         -0.894755   -5.003104   3.584188 C.3        1 UNL1     0.0210
     59 C         4.448026   -4.630056   1.429476 C.3        1 UNL1     0.0372
     60 C         1.403935   -3.692229   2.351369 C.2        1 UNL1     -0.0208
     61 C         1.770805   -3.466918   3.613663 C.2        1 UNL1     0.0882
     62 H         -0.027285   0.486374   4.086596 H        1 UNL1     0.0365
     63 H         -1.547823   0.476393   5.449714 H        1 UNL1     0.0576
     64 H         -3.061914   3.160476   5.447489 H        1 UNL1     0.0615
     65 H         -3.515759   0.463935   6.957638 H        1 UNL1     0.0622
     66 H         2.17587   -4.870949   0.82334 H        1 UNL1     0.0645
     67 H         1.436465   -3.824789   -0.867529 H        1 UNL1     0.0362
     68 H         3.416541   -2.970224   -1.273721 H        1 UNL1     0.0741
     69 H         4.097586   -0.44442   -0.846079 H        1 UNL1     0.0359
     70 H         3.866774   0.568981   1.133632 H        1 UNL1     0.0600
     71 H         2.142454   1.753446   0.560504 H        1 UNL1     0.0348
     72 H         1.302086   0.972002   2.708799 H        1 UNL1     0.0602
     73 H         0.397095   -3.944858   2.128433 H        1 UNL1     0.0628
     74 H         2.767708   -3.146549   3.918272 H        1 UNL1     0.1022
     75 H         -6.228839   3.522687   6.868915 H        1 UNL1     0.0279
     76 H         -7.38289   2.257286   7.011136 H        1 UNL1     0.0279
     77 H         -6.527727   2.938525   8.453324 H        1 UNL1     0.0279
     78 H         -7.109538   0.196583   6.2187 H        1 UNL1     0.1553
     79 H         -6.114274   0.832193   4.627576 H        1 UNL1     0.1484
     80 H         -4.631683   -0.608859   1.43935 H        1 UNL1     0.0317
     81 H         -5.508744   -1.587658   2.606672 H        1 UNL1     0.0317
     82 H         -7.179905   0.246544   2.976305 H        1 UNL1     0.0428
     83 H         -7.073065   -0.243413   1.29993 H        1 UNL1     0.0428
     84 H         -4.984936   3.301595   2.384261 H        1 UNL1     0.0428
     85 H         -5.875375   2.519026   3.642763 H        1 UNL1     0.0428
     86 H         -3.418153   2.093994   3.563642 H        1 UNL1     0.0317
     87 H         -3.487003   1.404824   2.007154 H        1 UNL1     0.0317
     88 H         -8.108848   2.252386   1.86274 H        1 UNL1     0.0429
     89 H         -7.014998   3.446912   1.160717 H        1 UNL1     0.0429
     90 H         -6.895063   1.111689   -0.525194 H        1 UNL1     0.0308
     91 H         -9.751261   1.794721   0.353752 H        1 UNL1     0.0233
     92 H         -9.378329   1.011675   -1.202929 H        1 UNL1     0.0233
     93 H         -9.00541   0.201843   0.303625 H        1 UNL1     0.0233
     94 H         -8.192166   2.739034   -2.086684 H        1 UNL1     0.0233
     95 H         -7.950827   3.903241   -0.774927 H        1 UNL1     0.0233
     96 H         -6.545898   3.146439   -1.560685 H        1 UNL1     0.0233
     97 H         -1.905189   -6.910292   7.036995 H        1 UNL1     0.0280
     98 H         -1.307399   -6.112899   8.46668 H        1 UNL1     0.0280
     99 H         -3.008245   -6.663218   8.403396 H        1 UNL1     0.0280
     100 H         -5.328334   -5.476816   8.109818 H        1 UNL1     0.2922
     101 H         1.907414   2.060087   4.037141 H        1 UNL1     0.0236
     102 H         1.041858   2.179298   5.619122 H        1 UNL1     0.0236
     103 H         0.883544   3.412449   4.406781 H        1 UNL1     0.0236
     104 H         1.143652   3.165479   2.307595 H        1 UNL1     0.2098
     105 H         0.685021   1.21957   -1.026734 H        1 UNL1     0.0234
     106 H         1.361957   -0.429007   -0.904062 H        1 UNL1     0.0234
     107 H         0.0   -0.0   0.0 H        1 UNL1     0.0234
     108 H         2.314851   -1.49496   2.260251 H        1 UNL1     0.2098
     109 H         -0.498365   -3.343511   0.291157 H        1 UNL1     0.0234
     110 H         0.133543   -1.785943   0.913635 H        1 UNL1     0.0234
     111 H         -0.186223   -1.988326   -0.773266 H        1 UNL1     0.0234
     112 H         3.771231   -0.622951   -4.929755 H        1 UNL1     0.0342
     113 H         4.900861   -0.917805   -3.560362 H        1 UNL1     0.0342
     114 H         3.820392   -2.198059   -4.118491 H        1 UNL1     0.0342
     115 H         5.496711   -2.352475   -0.736228 H        1 UNL1     0.0234
     116 H         5.815712   -1.282785   0.633 H        1 UNL1     0.0234
     117 H         4.927871   -2.811711   0.799648 H        1 UNL1     0.0234
     118 H         -0.092317   -5.47905   2.993785 H        1 UNL1     0.0309
     119 H         -1.567788   -5.778279   3.964099 H        1 UNL1     0.0309
     120 H         -1.46588   -4.447508   2.832366 H        1 UNL1     0.0309
     121 H         5.259096   -4.432339   2.129782 H        1 UNL1     0.0524
     122 H         3.963806   -5.571066   1.739423 H        1 UNL1     0.0524
     123 H         4.841793   -4.750604   0.424234 H        1 UNL1     0.0524
@<TRIPOS>BOND
     1     1     2    1
     2     1    42    1
     3     2     3    2
     4     3     4    1
     5     4     5    2
     6     5     7    1
     7     6    75    1
     8     6    76    1
     9     6    77    1
    10     7     9   am
    11     9    10    1
    12    10    11    2
    13    10    43    1
    14    11    14    1
    15    11    15    1
    16    12    13   ar
    17    12    27   ar
    18    12    43    1
    19    13    14    1
    20    13    30   ar
    21    14    17    2
    22    15    16    1
    23    16    17    1
    24    16    18    1
    25    16    22    1
    26    18    19    1
    27    19    20    1
    28    20    21    1
    29    21    22    1
    30    23    24    1
    31    23    88    1
    32    23    89    1
    33    24    25    1
    34    24    26    1
    35    24    90    1
    36    25    91    1
    37    25    92    1
    38    25    93    1
    39    26    94    1
    40    26    95    1
    41    26    96    1
    42    27    28   ar
    43    28    29   ar
    44    29    30   ar
    45    29    31    1
    46    30    33    1
    47    31    32    1
    48    32    33    1
    49    32    35    1
    50    34    97    1
    51    34    98    1
    52    34    99    1
    53    35    61    1
    54    36    37    1
    55    36    60    1
    56    37    38    1
    57    38    39    1
    58    39    40    1
    59    40    41    1
    60    41    42    1
    61    45   100    1
    62    47   101    1
    63    47   102    1
    64    47   103    1
    65    48   104    1
    66    49   105    1
    67    49   106    1
    68    49   107    1
    69    50   108    1
    70    51    59    1
    71    52   109    1
    72    52   110    1
    73    52   111    1
    74    53    54    1
    75    54    55    2
    76    54    56    1
    77    56   112    1
    78    56   113    1
    79    56   114    1
    80    57   115    1
    81    57   116    1
    82    57   117    1
    83    58   118    1
    84    58   119    1
    85    58   120    1
    86    59   121    1
    87    59   122    1
    88    59   123    1
    89    60    61    2
    90     1    47    1
    91     1    62    1
    92     2    63    1
    93     3    64    1
    94     4    65    1
    95     5     6    1
    96     7     8    2
    97     9    78    1
    98    15    79    1
    99    18    80    1
   100    18    81    1
   101    19    82    1
   102    19    83    1
   103    20    23    1
   104    21    84    1
   105    21    85    1
   106    22    86    1
   107    22    87    1
   108    27    45    1
   109    28    34    1
   110    32    58    1
   111    33    46    2
   112    36    51    1
   113    36    66    1
   114    37    52    1
   115    37    67    1
   116    38    53    1
   117    38    68    1
   118    42    48    1
   119    42    72    1
   120    43    44    2
   121    60    73    1
   122    61    74    1
   123    39    69    1
   124    39    57    1
   125    40    70    1
   126    40    50    1
   127    41    71    1
   128    41    49    1
