@<TRIPOS>MOLECULE
*****
 123 128 0 0 0
SMALL
GASTEIGER

@<TRIPOS>ATOM
     1 C         5.276534   1.41696   0.402743 C.3        1 UNL1     0.0009
     2 C         6.767986   1.481886   1.502013 C.2        1 UNL1     -0.0787
     3 C         7.668448   2.229195   2.354505 C.2        1 UNL1     -0.0649
     4 C         8.946821   1.635129   3.292165 C.2        1 UNL1     -0.0542
     5 C         9.801671   1.899487   4.390538 C.2        1 UNL1     0.0115
     6 C         10.257579   2.995417   5.39274 C.3        1 UNL1     -0.0348
     7 C         10.593191   0.679413   5.070173 C.2        1 UNL1     0.2441
     8 O         11.778126   0.457076   4.862759 O.2        1 UNL1     -0.2702
     9 N         9.905656   0.041872   6.117546 N.am        1 UNL1     -0.2772
     10 C         9.106889   -0.964515   5.625125 C.2        1 UNL1     0.1049
     11 C         7.926217   -0.596453   5.161697 C.2        1 UNL1     0.0801
     12 C         9.128929   -2.948951   4.102345 C.ar        1 UNL1     0.0753
     13 C         7.958749   -2.395133   3.491958 C.ar        1 UNL1     0.0305
     14 C         7.244804   -1.268515   4.088671 C.2        1 UNL1     0.0924
     15 N         7.279684   0.576109   5.278406 N.pl3        1 UNL1     -0.3170
     16 C         5.955263   0.402759   4.743512 C.3        1 UNL1     0.1275
     17 N         6.102036   -0.696602   3.719995 N.2        1 UNL1     -0.2557
     18 C         5.088225   -0.171128   5.860025 C.3        1 UNL1     0.0016
     19 C         5.163612   0.758331   7.060863 C.3        1 UNL1     0.0026
     20 N         4.696482   2.078429   6.660665 N.3        1 UNL1     -0.3018
     21 C         5.430826   2.687385   5.549684 C.3        1 UNL1     0.0026
     22 C         5.338077   1.739199   4.352924 C.3        1 UNL1     0.0016
     23 C         4.445172   2.953522   7.788361 C.3        1 UNL1     0.0012
     24 C         3.204402   2.487148   8.566011 C.3        1 UNL1     -0.0339
     25 C         2.427494   3.67768   9.151761 C.3        1 UNL1     -0.0615
     26 C         2.323515   1.628795   7.674917 C.3        1 UNL1     -0.0615
     27 C         9.733457   -4.096504   3.594617 C.ar        1 UNL1     0.1347
     28 C         9.238044   -4.797738   2.509773 C.ar        1 UNL1     0.0342
     29 C         8.11373   -4.206561   1.895289 C.ar        1 UNL1     0.1435
     30 C         7.518891   -3.03732   2.37096 C.ar        1 UNL1     0.0774
     31 O         7.449386   -4.826765   0.895788 O.3        1 UNL1     -0.4436
     32 C         6.161556   -4.193034   0.868371 C.3        1 UNL1     0.3143
     33 C         6.374391   -2.835511   1.507156 C.2        1 UNL1     0.2504
     34 C         9.681066   -6.164178   2.066294 C.3        1 UNL1     -0.0327
     35 O         5.830638   -3.96003   -0.506203 O.2        1 UNL1     -0.4528
     36 C         2.043683   -4.123491   -0.707044 C.3        1 UNL1     0.0854
     37 C         0.967028   -3.276356   0.074429 C.3        1 UNL1     0.0236
     38 C         -0.092087   -2.508464   -0.853128 C.3        1 UNL1     0.1131
     39 C         0.419307   -1.606505   -2.047789 C.3        1 UNL1     0.0200
     40 C         1.716377   -0.57933   -1.835754 C.3        1 UNL1     0.0661
     41 C         1.908047   0.53039   -0.567135 C.3        1 UNL1     0.0091
     42 C         3.425973   1.128009   0.272003 C.3        1 UNL1     0.0661
     43 C         9.625589   -2.312164   5.347371 C.2        1 UNL1     0.2131
     44 O         10.332521   -2.881712   6.158912 O.2        1 UNL1     -0.2851
     45 O         10.895313   -4.544154   4.220028 O.3        1 UNL1     -0.5056
     46 O         5.753106   -1.812118   1.3268 O.2        1 UNL1     -0.2836
     47 C         5.592707   2.06137   -0.973757 C.3        1 UNL1     -0.0566
     48 O         3.040885   2.558175   0.198195 O.3        1 UNL1     -0.3909
     49 C         0.901387   0.21217   0.515854 C.3        1 UNL1     -0.0577
     50 O         2.934752   -1.254549   -2.075263 O.3        1 UNL1     -0.3910
     51 O         2.053884   -3.965242   -2.10786 O.3        1 UNL1     -0.3753
     52 C         1.562338   -2.629318   1.367448 C.3        1 UNL1     -0.0564
     53 O         -1.293739   -2.008773   -0.105688 O.3        1 UNL1     -0.4608
     54 C         -1.942169   -0.825071   -0.343004 C.2        1 UNL1     0.3042
     55 O         -1.862594   0.214233   0.31072 O.2        1 UNL1     -0.2512
     56 C         -2.787625   -0.840906   -1.584642 C.3        1 UNL1     0.0332
     57 C         0.384207   -2.498547   -3.374893 C.3        1 UNL1     -0.0567
     58 C         5.240173   -5.035058   1.781375 C.3        1 UNL1     0.0210
     59 C         1.550616   -5.081202   -2.840812 C.3        1 UNL1     0.0372
     60 C         3.446087   -3.939034   -0.244013 C.2        1 UNL1     -0.0208
     61 C         4.570481   -3.765577   -0.939999 C.2        1 UNL1     0.0882
     62 H         5.433015   0.337754   0.286388 H        1 UNL1     0.0365
     63 H         7.138043   0.459213   1.403686 H        1 UNL1     0.0576
     64 H         7.485588   3.277533   2.600791 H        1 UNL1     0.0615
     65 H         9.096922   0.619939   2.914884 H        1 UNL1     0.0622
     66 H         1.787653   -5.168778   -0.483732 H        1 UNL1     0.0645
     67 H         0.326802   -4.035542   0.55641 H        1 UNL1     0.0362
     68 H         -0.580864   -3.372588   -1.328427 H        1 UNL1     0.0741
     69 H         -0.373836   -0.930207   -2.337537 H        1 UNL1     0.0359
     70 H         1.58594   0.077025   -2.717369 H        1 UNL1     0.0600
     71 H         1.454647   1.430197   -1.02728 H        1 UNL1     0.0348
     72 H         3.756142   0.708406   -0.689369 H        1 UNL1     0.0602
     73 H         3.489906   -4.089958   0.806011 H        1 UNL1     0.0628
     74 H         4.607276   -3.547251   -2.007809 H        1 UNL1     0.1022
     75 H         10.487833   3.946812   4.855278 H        1 UNL1     0.0279
     76 H         9.523945   3.31434   6.129719 H        1 UNL1     0.0279
     77 H         11.228079   2.768957   5.858086 H        1 UNL1     0.0279
     78 H         9.299894   0.711881   6.586818 H        1 UNL1     0.1553
     79 H         7.499726   1.266812   5.972268 H        1 UNL1     0.1484
     80 H         4.058551   -0.273151   5.496529 H        1 UNL1     0.0317
     81 H         5.423354   -1.176028   6.138442 H        1 UNL1     0.0317
     82 H         6.181649   0.807297   7.474524 H        1 UNL1     0.0428
     83 H         4.539837   0.329404   7.845704 H        1 UNL1     0.0428
     84 H         5.010595   3.641517   5.216745 H        1 UNL1     0.0428
     85 H         6.464386   2.934135   5.829301 H        1 UNL1     0.0428
     86 H         5.768523   2.273361   3.526259 H        1 UNL1     0.0317
     87 H         4.289954   1.612843   4.055318 H        1 UNL1     0.0317
     88 H         5.314619   2.907102   8.457092 H        1 UNL1     0.0429
     89 H         4.341793   3.99803   7.467285 H        1 UNL1     0.0429
     90 H         3.520552   1.836933   9.390318 H        1 UNL1     0.0308
     91 H         2.298858   4.472096   8.410506 H        1 UNL1     0.0233
     92 H         1.445815   3.359474   9.510454 H        1 UNL1     0.0233
     93 H         2.937284   4.125878   10.013194 H        1 UNL1     0.0233
     94 H         1.297128   1.616831   8.057308 H        1 UNL1     0.0233
     95 H         2.301272   2.041575   6.662454 H        1 UNL1     0.0233
     96 H         2.686882   0.598386   7.628115 H        1 UNL1     0.0233
     97 H         8.860988   -6.87597   2.058983 H        1 UNL1     0.0280
     98 H         10.082503   -6.157701   1.0445 H        1 UNL1     0.0280
     99 H         10.458911   -6.540196   2.750883 H        1 UNL1     0.0280
     100 H         11.54638   -3.878984   4.358892 H        1 UNL1     0.2922
     101 H         5.721886   1.28143   -1.723865 H        1 UNL1     0.0236
     102 H         6.441536   2.743656   -0.9428 H        1 UNL1     0.0236
     103 H         4.754254   2.672703   -1.347204 H        1 UNL1     0.0236
     104 H         3.821419   3.087404   0.454427 H        1 UNL1     0.2098
     105 H         1.151254   -0.656298   1.120123 H        1 UNL1     0.0234
     106 H         0.639128   1.054715   1.155593 H        1 UNL1     0.0234
     107 H         -0.0   0.0   0.0 H        1 UNL1     0.0234
     108 H         2.98216   -1.999594   -1.445638 H        1 UNL1     0.2098
     109 H         1.933029   -3.382482   2.076704 H        1 UNL1     0.0234
     110 H         2.353731   -1.901249   1.159229 H        1 UNL1     0.0234
     111 H         0.806449   -2.051377   1.915683 H        1 UNL1     0.0234
     112 H         -3.258745   0.136461   -1.726578 H        1 UNL1     0.0342
     113 H         -2.216529   -1.130938   -2.465309 H        1 UNL1     0.0342
     114 H         -3.586163   -1.582816   -1.446546 H        1 UNL1     0.0342
     115 H         0.525837   -1.890916   -4.279279 H        1 UNL1     0.0234
     116 H         1.130656   -3.295095   -3.394258 H        1 UNL1     0.0234
     117 H         -0.60223   -2.951286   -3.57467 H        1 UNL1     0.0234
     118 H         4.472401   -5.580826   1.205468 H        1 UNL1     0.0309
     119 H         5.789072   -5.744605   2.408636 H        1 UNL1     0.0309
     120 H         4.64994   -4.41754   2.467234 H        1 UNL1     0.0309
     121 H         2.00991   -5.061005   -3.828738 H        1 UNL1     0.0524
     122 H         1.814803   -6.04349   -2.37151 H        1 UNL1     0.0524
     123 H         0.469768   -5.016689   -2.928557 H        1 UNL1     0.0524
@<TRIPOS>BOND
     1     1     2    1
     2     1    42    1
     3     2     3    2
     4     3     4    1
     5     4     5    2
     6     5     7    1
     7     6    75    1
     8     6    76    1
     9     6    77    1
    10     7     9   am
    11     9    10    1
    12    10    11    2
    13    10    43    1
    14    11    14    1
    15    11    15    1
    16    12    13   ar
    17    12    27   ar
    18    12    43    1
    19    13    14    1
    20    13    30   ar
    21    14    17    2
    22    15    16    1
    23    16    17    1
    24    16    18    1
    25    16    22    1
    26    18    19    1
    27    19    20    1
    28    20    21    1
    29    21    22    1
    30    23    24    1
    31    23    88    1
    32    23    89    1
    33    24    25    1
    34    24    26    1
    35    24    90    1
    36    25    91    1
    37    25    92    1
    38    25    93    1
    39    26    94    1
    40    26    95    1
    41    26    96    1
    42    27    28   ar
    43    28    29   ar
    44    29    30   ar
    45    29    31    1
    46    30    33    1
    47    31    32    1
    48    32    33    1
    49    32    35    1
    50    34    97    1
    51    34    98    1
    52    34    99    1
    53    35    61    1
    54    36    37    1
    55    36    60    1
    56    37    38    1
    57    38    39    1
    58    39    40    1
    59    40    41    1
    60    41    42    1
    61    45   100    1
    62    47   101    1
    63    47   102    1
    64    47   103    1
    65    48   104    1
    66    49   105    1
    67    49   106    1
    68    49   107    1
    69    50   108    1
    70    51    59    1
    71    52   109    1
    72    52   110    1
    73    52   111    1
    74    53    54    1
    75    54    55    2
    76    54    56    1
    77    56   112    1
    78    56   113    1
    79    56   114    1
    80    57   115    1
    81    57   116    1
    82    57   117    1
    83    58   118    1
    84    58   119    1
    85    58   120    1
    86    59   121    1
    87    59   122    1
    88    59   123    1
    89    60    61    2
    90     1    47    1
    91     1    62    1
    92     2    63    1
    93     3    64    1
    94     4    65    1
    95     5     6    1
    96     7     8    2
    97     9    78    1
    98    15    79    1
    99    18    80    1
   100    18    81    1
   101    19    82    1
   102    19    83    1
   103    20    23    1
   104    21    84    1
   105    21    85    1
   106    22    86    1
   107    22    87    1
   108    27    45    1
   109    28    34    1
   110    32    58    1
   111    33    46    2
   112    36    51    1
   113    36    66    1
   114    37    52    1
   115    37    67    1
   116    38    53    1
   117    38    68    1
   118    42    48    1
   119    42    72    1
   120    43    44    2
   121    60    73    1
   122    61    74    1
   123    39    69    1
   124    39    57    1
   125    40    70    1
   126    40    50    1
   127    41    71    1
   128    41    49    1
