@<TRIPOS>MOLECULE
*****
 123 128 0 0 0
SMALL
GASTEIGER

@<TRIPOS>ATOM
     1 C         1.228682   -5.303802   0.609737 C.3        1 UNL1     0.0009
     2 C         0.827987   -6.878662   1.502092 C.2        1 UNL1     -0.0787
     3 C         1.129695   -7.850561   2.531863 C.2        1 UNL1     -0.0649
     4 C         0.210486   -9.194536   2.995702 C.2        1 UNL1     -0.0542
     5 C         -0.030836   -10.13647   4.026043 C.2        1 UNL1     0.0115
     6 C         0.499765   -10.68015   5.381106 C.3        1 UNL1     -0.0348
     7 C         -1.403147   -10.969259   4.011471 C.2        1 UNL1     0.2441
     8 O         -1.471991   -12.131947   3.63738 O.2        1 UNL1     -0.2702
     9 N         -2.467919   -10.362038   4.699725 N.am        1 UNL1     -0.2772
     10 C         -3.161392   -9.518016   3.863039 C.2        1 UNL1     0.1049
     11 C         -2.656737   -8.307322   3.708879 C.2        1 UNL1     0.0801
     12 C         -4.230864   -9.401674   1.604715 C.ar        1 UNL1     0.0753
     13 C         -3.493647   -8.191299   1.404436 C.ar        1 UNL1     0.0305
     14 C         -2.784566   -7.536821   2.501666 C.2        1 UNL1     0.0924
     15 N         -1.685835   -7.682151   4.396658 N.pl3        1 UNL1     -0.3170
     16 C         -1.634246   -6.317867   3.942432 C.3        1 UNL1     0.1275
     17 N         -2.140748   -6.373198   2.521827 N.2        1 UNL1     -0.2557
     18 C         -2.679143   -5.537776   4.734487 C.3        1 UNL1     0.0016
     19 C         -2.39823   -5.716585   6.217965 C.3        1 UNL1     0.0026
     20 N         -1.055079   -5.230274   6.501648 N.3        1 UNL1     -0.3018
     21 C         0.014646   -5.878839   5.740451 C.3        1 UNL1     0.0026
     22 C         -0.285285   -5.682889   4.253327 C.3        1 UNL1     0.0016
     23 C         -0.798591   -5.077144   7.919889 C.3        1 UNL1     0.0012
     24 C         -1.604062   -3.898415   8.488723 C.3        1 UNL1     -0.0339
     25 C         -3.007601   -3.82351   7.865404 C.3        1 UNL1     -0.0615
     26 C         -1.669362   -3.994848   10.00306 C.3        1 UNL1     -0.0615
     27 C         -5.002328   -9.954007   0.584965 C.ar        1 UNL1     0.1347
     28 C         -5.145332   -9.367716   -0.65997 C.ar        1 UNL1     0.0342
     29 C         -4.371694   -8.203049   -0.850234 C.ar        1 UNL1     0.1435
     30 C         -3.566034   -7.658003   0.150295 C.ar        1 UNL1     0.0774
     31 O         -4.486455   -7.455867   -1.969857 O.3        1 UNL1     -0.4436
     32 C         -3.947558   -6.175389   -1.608141 C.3        1 UNL1     0.3143
     33 C         -3.025516   -6.450023   -0.437403 C.2        1 UNL1     0.2504
     34 C         -6.145453   -9.762324   -1.710752 C.3        1 UNL1     -0.0327
     35 O         -3.122725   -5.737904   -2.695115 O.2        1 UNL1     -0.4528
     36 C         -3.285958   -1.94574   -2.664557 C.3        1 UNL1     0.0854
     37 C         -2.920228   -0.942076   -1.504202 C.3        1 UNL1     0.0236
     38 C         -1.844695   0.181063   -1.896031 C.3        1 UNL1     0.1131
     39 C         -0.482647   -0.241089   -2.58078 C.3        1 UNL1     0.0200
     40 C         0.371653   -1.559626   -2.020361 C.3        1 UNL1     0.0661
     41 C         0.785321   -1.861282   -0.403112 C.3        1 UNL1     0.0091
     42 C         0.977844   -3.446318   0.500213 C.3        1 UNL1     0.0661
     43 C         -4.218227   -10.001434   2.962061 C.2        1 UNL1     0.2131
     44 O         -5.074607   -10.76596   3.368077 O.2        1 UNL1     -0.2851
     45 O         -5.652218   -11.158185   0.84771 O.3        1 UNL1     -0.5056
     46 O         -2.051011   -5.825062   -0.082976 O.2        1 UNL1     -0.2836
     47 C         2.438996   -5.51467   -0.339292 C.3        1 UNL1     -0.0566
     48 O         2.272338   -3.068749   1.117339 O.3        1 UNL1     -0.3909
     49 C         -0.020933   -0.941519   0.486542 C.3        1 UNL1     -0.0577
     50 O         -0.084362   -2.749235   -2.632411 O.3        1 UNL1     -0.3910
     51 O         -2.505775   -1.845548   -3.834474 O.3        1 UNL1     -0.3753
     52 C         -2.91752   -1.644082   -0.107015 C.3        1 UNL1     -0.0564
     53 O         -1.776058   1.31499   -0.915305 O.3        1 UNL1     -0.4608
     54 C         -1.357827   2.588493   -1.200269 C.2        1 UNL1     0.3042
     55 O         -0.269099   3.094753   -0.931549 O.2        1 UNL1     -0.2512
     56 C         -2.36201   3.391611   -1.977014 C.3        1 UNL1     0.0332
     57 C         -0.671506   -0.092687   -4.162072 C.3        1 UNL1     -0.0567
     58 C         -5.139645   -5.322617   -1.11495 C.3        1 UNL1     0.0210
     59 C         -3.025376   -2.546714   -4.9633 C.3        1 UNL1     0.0372
     60 C         -3.292625   -3.382121   -2.274778 C.2        1 UNL1     -0.0208
     61 C         -2.788292   -4.448867   -2.896424 C.2        1 UNL1     0.0882
     62 H         0.326478   -5.441321   0.001602 H        1 UNL1     0.0365
     63 H         -0.025988   -7.230988   0.9198 H        1 UNL1     0.0576
     64 H         1.944399   -7.696846   3.243015 H        1 UNL1     0.0615
     65 H         -0.515916   -9.305433   2.186057 H        1 UNL1     0.0622
     66 H         -4.324901   -1.699452   -2.925296 H        1 UNL1     0.0645
     67 H         -3.833851   -0.33589   -1.376176 H        1 UNL1     0.0362
     68 H         -2.410492   0.713518   -2.675703 H        1 UNL1     0.0741
     69 H         0.228105   0.566852   -2.469105 H        1 UNL1     0.0359
     70 H         1.353878   -1.364889   -2.491924 H        1 UNL1     0.0600
     71 H         1.782425   -1.380302   -0.365701 H        1 UNL1     0.0348
     72 H         1.052849   -3.695191   -0.568315 H        1 UNL1     0.0602
     73 H         -3.904677   -3.508247   -1.416447 H        1 UNL1     0.0628
     74 H         -2.105849   -4.40225   -3.745739 H        1 UNL1     0.1022
     75 H         1.597794   -10.874895   5.322436 H        1 UNL1     0.0279
     76 H         0.425936   -10.010361   6.234922 H        1 UNL1     0.0279
     77 H         0.114095   -11.682706   5.617414 H        1 UNL1     0.0279
     78 H         -2.103658   -9.801347   5.467199 H        1 UNL1     0.1553
     79 H         -1.381767   -7.96269   5.310865 H        1 UNL1     0.1484
     80 H         -2.633799   -4.481564   4.442722 H        1 UNL1     0.0317
     81 H         -3.690217   -5.88548   4.496827 H        1 UNL1     0.0317
     82 H         -2.513986   -6.764746   6.530808 H        1 UNL1     0.0428
     83 H         -3.155839   -5.153757   6.764137 H        1 UNL1     0.0428
     84 H         1.002985   -5.441527   5.912951 H        1 UNL1     0.0428
     85 H         0.136402   -6.933466   6.023743 H        1 UNL1     0.0428
     86 H         0.57941   -6.050571   3.732653 H        1 UNL1     0.0317
     87 H         -0.292179   -4.613335   4.010215 H        1 UNL1     0.0317
     88 H         -1.119858   -5.996722   8.426305 H        1 UNL1     0.0429
     89 H         0.273873   -4.957377   8.120512 H        1 UNL1     0.0429
     90 H         -1.074803   -2.963236   8.270692 H        1 UNL1     0.0308
     91 H         -3.507016   -4.796641   7.891922 H        1 UNL1     0.0233
     92 H         -3.6243   -3.089513   8.38937 H        1 UNL1     0.0233
     93 H         -2.981956   -3.507608   6.81546 H        1 UNL1     0.0233
     94 H         -2.524485   -3.424314   10.381333 H        1 UNL1     0.0233
     95 H         -1.799366   -5.037641   10.305788 H        1 UNL1     0.0233
     96 H         -0.759993   -3.60322   10.467435 H        1 UNL1     0.0233
     97 H         -6.69548   -10.656888   -1.434248 H        1 UNL1     0.0280
     98 H         -6.901531   -8.983597   -1.87564 H        1 UNL1     0.0280
     99 H         -5.623753   -9.957624   -2.661953 H        1 UNL1     0.0280
     100 H         -5.105169   -11.823886   1.226131 H        1 UNL1     0.2922
     101 H         2.091323   -5.576984   -1.370261 H        1 UNL1     0.0236
     102 H         3.05622   -6.369037   -0.063476 H        1 UNL1     0.0236
     103 H         3.128849   -4.654338   -0.328104 H        1 UNL1     0.0236
     104 H         2.360825   -2.098109   1.046638 H        1 UNL1     0.2098
     105 H         -1.061902   -1.231171   0.606111 H        1 UNL1     0.0234
     106 H         0.428748   -0.738587   1.458412 H        1 UNL1     0.0234
     107 H         0.0   0.0   0.0 H        1 UNL1     0.0234
     108 H         0.274687   -3.496855   -2.11674 H        1 UNL1     0.2098
     109 H         -3.677207   -1.227731   0.56918 H        1 UNL1     0.0234
     110 H         -3.039972   -2.730658   -0.171052 H        1 UNL1     0.0234
     111 H         -1.95698   -1.514409   0.409215 H        1 UNL1     0.0234
     112 H         -1.959146   4.386715   -2.188706 H        1 UNL1     0.0342
     113 H         -2.666231   2.88998   -2.894434 H        1 UNL1     0.0342
     114 H         -3.257788   3.516639   -1.353223 H        1 UNL1     0.0342
     115 H         0.256819   0.225545   -4.656166 H        1 UNL1     0.0234
     116 H         -1.01031   -1.005377   -4.656296 H        1 UNL1     0.0234
     117 H         -1.356196   0.724037   -4.448608 H        1 UNL1     0.0234
     118 H         -5.128409   -5.18886   -0.019054 H        1 UNL1     0.0309
     119 H         -5.192983   -4.340374   -1.595113 H        1 UNL1     0.0309
     120 H         -6.106081   -5.80385   -1.300754 H        1 UNL1     0.0309
     121 H         -2.186504   -2.790976   -5.614443 H        1 UNL1     0.0524
     122 H         -3.51214   -3.494575   -4.679298 H        1 UNL1     0.0524
     123 H         -3.743009   -1.92674   -5.493138 H        1 UNL1     0.0524
@<TRIPOS>BOND
     1     1     2    1
     2     1    42    1
     3     2     3    2
     4     3     4    1
     5     4     5    2
     6     5     7    1
     7     6    75    1
     8     6    76    1
     9     6    77    1
    10     7     9   am
    11     9    10    1
    12    10    11    2
    13    10    43    1
    14    11    14    1
    15    11    15    1
    16    12    13   ar
    17    12    27   ar
    18    12    43    1
    19    13    14    1
    20    13    30   ar
    21    14    17    2
    22    15    16    1
    23    16    17    1
    24    16    18    1
    25    16    22    1
    26    18    19    1
    27    19    20    1
    28    20    21    1
    29    21    22    1
    30    23    24    1
    31    23    88    1
    32    23    89    1
    33    24    25    1
    34    24    26    1
    35    24    90    1
    36    25    91    1
    37    25    92    1
    38    25    93    1
    39    26    94    1
    40    26    95    1
    41    26    96    1
    42    27    28   ar
    43    28    29   ar
    44    29    30   ar
    45    29    31    1
    46    30    33    1
    47    31    32    1
    48    32    33    1
    49    32    35    1
    50    34    97    1
    51    34    98    1
    52    34    99    1
    53    35    61    1
    54    36    37    1
    55    36    60    1
    56    37    38    1
    57    38    39    1
    58    39    40    1
    59    40    41    1
    60    41    42    1
    61    45   100    1
    62    47   101    1
    63    47   102    1
    64    47   103    1
    65    48   104    1
    66    49   105    1
    67    49   106    1
    68    49   107    1
    69    50   108    1
    70    51    59    1
    71    52   109    1
    72    52   110    1
    73    52   111    1
    74    53    54    1
    75    54    55    2
    76    54    56    1
    77    56   112    1
    78    56   113    1
    79    56   114    1
    80    57   115    1
    81    57   116    1
    82    57   117    1
    83    58   118    1
    84    58   119    1
    85    58   120    1
    86    59   121    1
    87    59   122    1
    88    59   123    1
    89    60    61    2
    90     1    47    1
    91     1    62    1
    92     2    63    1
    93     3    64    1
    94     4    65    1
    95     5     6    1
    96     7     8    2
    97     9    78    1
    98    15    79    1
    99    18    80    1
   100    18    81    1
   101    19    82    1
   102    19    83    1
   103    20    23    1
   104    21    84    1
   105    21    85    1
   106    22    86    1
   107    22    87    1
   108    27    45    1
   109    28    34    1
   110    32    58    1
   111    33    46    2
   112    36    51    1
   113    36    66    1
   114    37    52    1
   115    37    67    1
   116    38    53    1
   117    38    68    1
   118    42    48    1
   119    42    72    1
   120    43    44    2
   121    60    73    1
   122    61    74    1
   123    39    69    1
   124    39    57    1
   125    40    70    1
   126    40    50    1
   127    41    71    1
   128    41    49    1
