@<TRIPOS>MOLECULE
*****
 123 128 0 0 0
SMALL
GASTEIGER

@<TRIPOS>ATOM
     1 C         3.839141   -2.074727   2.092559 C.3        1 UNL1     0.0009
     2 C         4.818206   -3.645885   1.992912 C.2        1 UNL1     -0.0787
     3 C         4.984872   -5.045194   2.324877 C.2        1 UNL1     -0.0649
     4 C         6.182821   -6.108987   1.777502 C.2        1 UNL1     -0.0542
     5 C         6.533667   -7.469939   1.599186 C.2        1 UNL1     0.0115
     6 C         6.118952   -8.928923   1.934895 C.3        1 UNL1     -0.0348
     7 C         7.726878   -7.838886   0.590665 C.2        1 UNL1     0.2441
     8 O         8.852228   -8.132213   0.970232 O.2        1 UNL1     -0.2702
     9 N         7.327581   -8.057151   -0.7394 N.am        1 UNL1     -0.2772
     10 C         7.320975   -6.872518   -1.439345 C.2        1 UNL1     0.1049
     11 C         6.240845   -6.124198   -1.306837 C.2        1 UNL1     0.0801
     12 C         8.709156   -4.849935   -1.928678 C.ar        1 UNL1     0.0753
     13 C         7.56197   -4.072521   -1.570627 C.ar        1 UNL1     0.0305
     14 C         6.251259   -4.688017   -1.375051 C.2        1 UNL1     0.0924
     15 N         5.047044   -6.41891   -0.764147 N.pl3        1 UNL1     -0.3170
     16 C         4.161095   -5.315762   -1.025706 C.3        1 UNL1     0.1275
     17 N         5.072464   -4.118324   -1.140918 N.2        1 UNL1     -0.2557
     18 C         3.567947   -5.531697   -2.414681 C.3        1 UNL1     0.0016
     19 C         2.898873   -6.896472   -2.450982 C.3        1 UNL1     0.0026
     20 N         1.863944   -6.937439   -1.42713 N.3        1 UNL1     -0.3018
     21 C         2.328687   -6.679324   -0.062667 C.3        1 UNL1     0.0026
     22 C         2.993195   -5.301602   -0.048282 C.3        1 UNL1     0.0016
     23 C         0.972029   -8.070656   -1.571868 C.3        1 UNL1     0.0012
     24 C         0.076886   -7.896996   -2.808928 C.3        1 UNL1     -0.0339
     25 C         0.224005   -9.079917   -3.780068 C.3        1 UNL1     -0.0615
     26 C         -1.367568   -7.699745   -2.382988 C.3        1 UNL1     -0.0615
     27 C         9.926094   -4.243615   -2.231261 C.ar        1 UNL1     0.1347
     28 C         10.106226   -2.872007   -2.248361 C.ar        1 UNL1     0.0342
     29 C         8.976563   -2.128755   -1.845122 C.ar        1 UNL1     0.1435
     30 C         7.7614   -2.724064   -1.504231 C.ar        1 UNL1     0.0774
     31 O         8.958936   -0.779742   -1.914833 O.3        1 UNL1     -0.4436
     32 C         7.565856   -0.433685   -1.893752 C.3        1 UNL1     0.3143
     33 C         6.87515   -1.610908   -1.235509 C.2        1 UNL1     0.2504
     34 C         11.300515   -2.146427   -2.802715 C.3        1 UNL1     -0.0327
     35 O         7.417998   0.684345   -1.009784 O.2        1 UNL1     -0.4528
     36 C         4.460091   2.666645   -2.324834 C.3        1 UNL1     0.0854
     37 C         2.97431   2.196438   -2.56749 C.3        1 UNL1     0.0236
     38 C         1.857348   3.075969   -1.825489 C.3        1 UNL1     0.1131
     39 C         1.994302   3.376324   -0.278459 C.3        1 UNL1     0.0200
     40 C         2.446328   2.168816   0.779858 C.3        1 UNL1     0.0661
     41 C         1.76033   0.620096   0.871962 C.3        1 UNL1     0.0091
     42 C         2.514817   -0.990896   1.320137 C.3        1 UNL1     0.0661
     43 C         8.536406   -6.318487   -2.054269 C.2        1 UNL1     0.2131
     44 O         9.278349   -7.030089   -2.706863 O.2        1 UNL1     -0.2851
     45 O         11.005278   -5.074457   -2.525374 O.3        1 UNL1     -0.5056
     46 O         5.83813   -1.623086   -0.610775 O.2        1 UNL1     -0.2836
     47 C         3.992047   -1.432233   3.49748 C.3        1 UNL1     -0.0566
     48 O         1.426704   -1.370062   2.253604 O.3        1 UNL1     -0.3909
     49 C         0.91871   0.384955   -0.362493 C.3        1 UNL1     -0.0577
     50 O         3.854247   2.07957   0.866584 O.3        1 UNL1     -0.3910
     51 O         4.636033   3.678929   -1.359558 O.3        1 UNL1     -0.3753
     52 C         2.867533   0.640549   -2.680441 C.3        1 UNL1     -0.0564
     53 O         0.467354   2.839493   -2.339611 O.3        1 UNL1     -0.4608
     54 C         -0.68971   3.113333   -1.65833 C.2        1 UNL1     0.3042
     55 O         -1.423556   2.312473   -1.080462 O.2        1 UNL1     -0.2512
     56 C         -1.019152   4.577707   -1.596762 C.3        1 UNL1     0.0332
     57 C         2.698546   4.804128   -0.12487 C.3        1 UNL1     -0.0567
     58 C         7.11318   -0.351482   -3.370186 C.3        1 UNL1     0.0210
     59 C         5.792148   4.493401   -1.549025 C.3        1 UNL1     0.0372
     60 C         5.416512   1.578217   -1.984622 C.2        1 UNL1     -0.0208
     61 C         6.363379   1.521228   -1.047105 C.2        1 UNL1     0.0882
     62 H         4.582298   -1.593137   1.445644 H        1 UNL1     0.0365
     63 H         5.700899   -3.301628   1.449947 H        1 UNL1     0.0576
     64 H         4.213599   -5.601919   2.861816 H        1 UNL1     0.0615
     65 H         6.932978   -5.449854   1.332205 H        1 UNL1     0.0622
     66 H         4.786784   3.061875   -3.297002 H        1 UNL1     0.0645
     67 H         2.783406   2.446483   -3.625599 H        1 UNL1     0.0362
     68 H         2.021743   4.042391   -2.326013 H        1 UNL1     0.0741
     69 H         1.028415   3.677834   0.104375 H        1 UNL1     0.0359
     70 H         2.138867   2.629984   1.737904 H        1 UNL1     0.0600
     71 H         0.97903   0.799912   1.636287 H        1 UNL1     0.0348
     72 H         3.189778   -0.21894   1.717412 H        1 UNL1     0.0602
     73 H         5.344344   0.809449   -2.713344 H        1 UNL1     0.0628
     74 H         6.46731   2.237401   -0.231304 H        1 UNL1     0.1022
     75 H         5.144492   -8.943893   2.480091 H        1 UNL1     0.0279
     76 H         5.924363   -9.584747   1.089261 H        1 UNL1     0.0279
     77 H         6.786068   -9.402165   2.670218 H        1 UNL1     0.0279
     78 H         6.379712   -8.427776   -0.755528 H        1 UNL1     0.1553
     79 H         4.719543   -7.355417   -0.613716 H        1 UNL1     0.1484
     80 H         2.851599   -4.72869   -2.626323 H        1 UNL1     0.0317
     81 H         4.343868   -5.470705   -3.185316 H        1 UNL1     0.0317
     82 H         3.625846   -7.710125   -2.311733 H        1 UNL1     0.0428
     83 H         2.484337   -7.030656   -3.450584 H        1 UNL1     0.0428
     84 H         1.521335   -6.636783   0.675022 H        1 UNL1     0.0428
     85 H         2.983728   -7.481391   0.304658 H        1 UNL1     0.0428
     86 H         3.199897   -5.090602   0.98455 H        1 UNL1     0.0317
     87 H         2.263239   -4.530614   -0.32367 H        1 UNL1     0.0317
     88 H         1.584127   -8.971952   -1.707139 H        1 UNL1     0.0429
     89 H         0.370809   -8.223125   -0.666296 H        1 UNL1     0.0429
     90 H         0.362878   -6.97733   -3.332986 H        1 UNL1     0.0308
     91 H         0.186309   -10.036489   -3.250302 H        1 UNL1     0.0233
     92 H         -0.563098   -9.058135   -4.537434 H        1 UNL1     0.0233
     93 H         1.174726   -9.056042   -4.326323 H        1 UNL1     0.0233
     94 H         -2.042742   -7.960015   -3.205323 H        1 UNL1     0.0233
     95 H         -1.599961   -8.35217   -1.536644 H        1 UNL1     0.0233
     96 H         -1.560013   -6.663058   -2.09279 H        1 UNL1     0.0233
     97 H         11.155742   -1.070228   -2.810981 H        1 UNL1     0.0280
     98 H         12.205487   -2.323355   -2.206915 H        1 UNL1     0.0280
     99 H         11.486275   -2.478068   -3.837414 H        1 UNL1     0.0280
     100 H         11.473246   -4.845753   -3.309162 H        1 UNL1     0.2922
     101 H         3.54389   -0.438849   3.498227 H        1 UNL1     0.0236
     102 H         5.022194   -1.416436   3.851786 H        1 UNL1     0.0236
     103 H         3.437523   -1.990003   4.270519 H        1 UNL1     0.0236
     104 H         1.657537   -1.016458   3.134882 H        1 UNL1     0.2098
     105 H         0.70043   1.28297   -0.934973 H        1 UNL1     0.0234
     106 H         1.285585   -0.402668   -1.020506 H        1 UNL1     0.0234
     107 H         0.0   -0.0   0.0 H        1 UNL1     0.0234
     108 H         4.177406   1.747759   0.006795 H        1 UNL1     0.2098
     109 H         3.235762   0.131766   -1.778633 H        1 UNL1     0.0234
     110 H         1.85375   0.294137   -2.908448 H        1 UNL1     0.0234
     111 H         3.474231   0.252353   -3.509397 H        1 UNL1     0.0234
     112 H         -1.939067   4.728439   -1.023715 H        1 UNL1     0.0342
     113 H         -0.2005   5.164614   -1.183008 H        1 UNL1     0.0342
     114 H         -1.198516   4.932389   -2.621064 H        1 UNL1     0.0342
     115 H         2.183613   5.578541   -0.70995 H        1 UNL1     0.0234
     116 H         2.762233   5.159168   0.905634 H        1 UNL1     0.0234
     117 H         3.71099   4.844591   -0.562203 H        1 UNL1     0.0234
     118 H         6.97535   0.691835   -3.7041 H        1 UNL1     0.0309
     119 H         7.796036   -0.86038   -4.057887 H        1 UNL1     0.0309
     120 H         6.127651   -0.801169   -3.533347 H        1 UNL1     0.0309
     121 H         6.079045   4.890182   -0.575572 H        1 UNL1     0.0524
     122 H         6.649017   3.919273   -1.939143 H        1 UNL1     0.0524
     123 H         5.570902   5.306364   -2.234762 H        1 UNL1     0.0524
@<TRIPOS>BOND
     1     1     2    1
     2     1    42    1
     3     2     3    2
     4     3     4    1
     5     4     5    2
     6     5     7    1
     7     6    75    1
     8     6    76    1
     9     6    77    1
    10     7     9   am
    11     9    10    1
    12    10    11    2
    13    10    43    1
    14    11    14    1
    15    11    15    1
    16    12    13   ar
    17    12    27   ar
    18    12    43    1
    19    13    14    1
    20    13    30   ar
    21    14    17    2
    22    15    16    1
    23    16    17    1
    24    16    18    1
    25    16    22    1
    26    18    19    1
    27    19    20    1
    28    20    21    1
    29    21    22    1
    30    23    24    1
    31    23    88    1
    32    23    89    1
    33    24    25    1
    34    24    26    1
    35    24    90    1
    36    25    91    1
    37    25    92    1
    38    25    93    1
    39    26    94    1
    40    26    95    1
    41    26    96    1
    42    27    28   ar
    43    28    29   ar
    44    29    30   ar
    45    29    31    1
    46    30    33    1
    47    31    32    1
    48    32    33    1
    49    32    35    1
    50    34    97    1
    51    34    98    1
    52    34    99    1
    53    35    61    1
    54    36    37    1
    55    36    60    1
    56    37    38    1
    57    38    39    1
    58    39    40    1
    59    40    41    1
    60    41    42    1
    61    45   100    1
    62    47   101    1
    63    47   102    1
    64    47   103    1
    65    48   104    1
    66    49   105    1
    67    49   106    1
    68    49   107    1
    69    50   108    1
    70    51    59    1
    71    52   109    1
    72    52   110    1
    73    52   111    1
    74    53    54    1
    75    54    55    2
    76    54    56    1
    77    56   112    1
    78    56   113    1
    79    56   114    1
    80    57   115    1
    81    57   116    1
    82    57   117    1
    83    58   118    1
    84    58   119    1
    85    58   120    1
    86    59   121    1
    87    59   122    1
    88    59   123    1
    89    60    61    2
    90     1    47    1
    91     1    62    1
    92     2    63    1
    93     3    64    1
    94     4    65    1
    95     5     6    1
    96     7     8    2
    97     9    78    1
    98    15    79    1
    99    18    80    1
   100    18    81    1
   101    19    82    1
   102    19    83    1
   103    20    23    1
   104    21    84    1
   105    21    85    1
   106    22    86    1
   107    22    87    1
   108    27    45    1
   109    28    34    1
   110    32    58    1
   111    33    46    2
   112    36    51    1
   113    36    66    1
   114    37    52    1
   115    37    67    1
   116    38    53    1
   117    38    68    1
   118    42    48    1
   119    42    72    1
   120    43    44    2
   121    60    73    1
   122    61    74    1
   123    39    69    1
   124    39    57    1
   125    40    70    1
   126    40    50    1
   127    41    71    1
   128    41    49    1
