@<TRIPOS>MOLECULE
*****
 123 128 0 0 0
SMALL
GASTEIGER

@<TRIPOS>ATOM
     1 C         -1.087509   -4.141709   2.677698 C.3        1 UNL1     0.0009
     2 C         -2.583463   -5.187854   3.001329 C.2        1 UNL1     -0.0787
     3 C         -3.574293   -5.713775   3.916593 C.2        1 UNL1     -0.0649
     4 C         -4.934733   -6.652623   3.55036 C.2        1 UNL1     -0.0542
     5 C         -6.20373   -7.08584   4.007575 C.2        1 UNL1     0.0115
     6 C         -7.150869   -7.121777   5.238413 C.3        1 UNL1     -0.0348
     7 C         -7.247444   -7.688307   2.947064 C.2        1 UNL1     0.2441
     8 O         -7.454359   -8.887799   2.824872 O.2        1 UNL1     -0.2702
     9 N         -8.096511   -6.739085   2.351904 N.am        1 UNL1     -0.2772
     10 C         -7.509271   -6.208347   1.226387 C.2        1 UNL1     0.1049
     11 C         -6.654322   -5.221744   1.426133 C.2        1 UNL1     0.0801
     12 C         -6.336134   -6.848222   -0.888239 C.ar        1 UNL1     0.0753
     13 C         -5.322705   -5.907642   -0.518264 C.ar        1 UNL1     0.0305
     14 C         -5.515632   -4.969483   0.585225 C.2        1 UNL1     0.0924
     15 N         -6.411271   -4.500298   2.533819 N.pl3        1 UNL1     -0.3170
     16 C         -5.512518   -3.435167   2.176059 C.3        1 UNL1     0.1275
     17 N         -4.735862   -3.975094   1.000046 N.2        1 UNL1     -0.2557
     18 C         -6.361906   -2.290103   1.632855 C.3        1 UNL1     0.0016
     19 C         -7.396963   -1.912835   2.68067 C.3        1 UNL1     0.0026
     20 N         -6.705654   -1.519414   3.900645 N.3        1 UNL1     -0.3018
     21 C         -5.815163   -2.535268   4.465831 C.3        1 UNL1     0.0026
     22 C         -4.780842   -2.895999   3.398147 C.3        1 UNL1     0.0016
     23 C         -7.575786   -0.861029   4.854607 C.3        1 UNL1     0.0012
     24 C         -8.603103   -1.853769   5.421036 C.3        1 UNL1     -0.0339
     25 C         -9.218938   -2.72068   4.310509 C.3        1 UNL1     -0.0615
     26 C         -7.962839   -2.704564   6.504083 C.3        1 UNL1     -0.0615
     27 C         -6.195037   -7.655525   -2.014504 C.ar        1 UNL1     0.1347
     28 C         -5.107605   -7.584451   -2.866846 C.ar        1 UNL1     0.0342
     29 C         -4.100046   -6.686145   -2.455705 C.ar        1 UNL1     0.1435
     30 C         -4.211298   -5.897044   -1.310209 C.ar        1 UNL1     0.0774
     31 O         -3.029301   -6.422853   -3.23621 O.3        1 UNL1     -0.4436
     32 C         -2.516855   -5.176814   -2.740571 C.3        1 UNL1     0.3143
     33 C         -3.012345   -5.085086   -1.311484 C.2        1 UNL1     0.2504
     34 C         -5.003781   -8.232175   -4.219538 C.3        1 UNL1     -0.0327
     35 O         -1.090215   -5.296619   -2.680605 O.2        1 UNL1     -0.4528
     36 C         0.272353   -1.798531   -3.241749 C.3        1 UNL1     0.0854
     37 C         -0.01541   -0.475559   -2.432762 C.3        1 UNL1     0.0236
     38 C         1.288443   0.270552   -1.871487 C.3        1 UNL1     0.1131
     39 C         2.365153   -0.54376   -1.04695 C.3        1 UNL1     0.0200
     40 C         1.887063   -1.634534   0.120989 C.3        1 UNL1     0.0661
     41 C         0.774474   -1.333685   1.365676 C.3        1 UNL1     0.0091
     42 C         -0.41756   -2.455991   2.193256 C.3        1 UNL1     0.0661
     43 C         -7.582782   -6.872457   -0.08354 C.2        1 UNL1     0.2131
     44 O         -8.641264   -7.311509   -0.495347 O.2        1 UNL1     -0.2851
     45 O         -7.206489   -8.576719   -2.278711 O.3        1 UNL1     -0.5056
     46 O         -2.516832   -4.493337   -0.378664 O.2        1 UNL1     -0.2836
     47 C         0.18908   -4.847012   3.209533 C.3        1 UNL1     -0.0566
     48 O         -0.045096   -2.027038   3.563069 O.3        1 UNL1     -0.3909
     49 C         0.033114   -0.051752   1.058227 C.3        1 UNL1     -0.0577
     50 O         1.64228   -2.904367   -0.449387 O.3        1 UNL1     -0.3910
     51 O         1.606587   -2.253444   -3.224252 O.3        1 UNL1     -0.3753
     52 C         -1.337006   -0.576649   -1.603235 C.3        1 UNL1     -0.0564
     53 O         1.027994   1.678665   -1.422367 O.3        1 UNL1     -0.4608
     54 C         0.979863   2.101757   -0.119828 C.2        1 UNL1     0.3042
     55 O         0.389757   3.085712   0.324521 O.2        1 UNL1     -0.2512
     56 C         1.700286   1.19269   0.834792 C.3        1 UNL1     0.0332
     57 C         3.510997   -0.997732   -2.066325 C.3        1 UNL1     -0.0567
     58 C         -3.191764   -4.063385   -3.575019 C.3        1 UNL1     0.0210
     59 C         1.842629   -3.386547   -2.38985 C.3        1 UNL1     0.0372
     60 C         -0.582004   -2.959909   -2.872377 C.2        1 UNL1     -0.0208
     61 C         -0.260106   -4.23625   -2.657715 C.2        1 UNL1     0.0882
     62 H         -1.16447   -4.394754   1.613387 H        1 UNL1     0.0365
     63 H         -2.737565   -5.633044   2.016175 H        1 UNL1     0.0576
     64 H         -3.61512   -5.395548   4.960707 H        1 UNL1     0.0615
     65 H         -4.756174   -6.980427   2.522671 H        1 UNL1     0.0622
     66 H         0.010377   -1.54981   -4.279801 H        1 UNL1     0.0645
     67 H         -0.363137   0.23768   -3.200184 H        1 UNL1     0.0362
     68 H         1.77987   0.523237   -2.823417 H        1 UNL1     0.0741
     69 H         2.973675   0.152886   -0.485884 H        1 UNL1     0.0359
     70 H         2.840633   -1.756831   0.669448 H        1 UNL1     0.0600
     71 H         1.464463   -0.999016   2.16497 H        1 UNL1     0.0348
     72 H         0.32912   -3.106226   1.714738 H        1 UNL1     0.0602
     73 H         -1.602454   -2.669504   -2.912317 H        1 UNL1     0.0628
     74 H         0.760202   -4.604286   -2.544759 H        1 UNL1     0.1022
     75 H         -8.208251   -6.947091   4.924628 H        1 UNL1     0.0279
     76 H         -7.217907   -8.067489   5.77152 H        1 UNL1     0.0279
     77 H         -6.986766   -6.279195   5.926037 H        1 UNL1     0.0279
     78 H         -8.261687   -5.973013   3.001463 H        1 UNL1     0.1553
     79 H         -7.045498   -4.439225   3.309035 H        1 UNL1     0.1484
     80 H         -5.70825   -1.44295   1.392372 H        1 UNL1     0.0317
     81 H         -6.857034   -2.578797   0.699498 H        1 UNL1     0.0317
     82 H         -8.100862   -2.736028   2.872485 H        1 UNL1     0.0428
     83 H         -7.992762   -1.096028   2.272136 H        1 UNL1     0.0428
     84 H         -5.248366   -2.187162   5.334954 H        1 UNL1     0.0428
     85 H         -6.372786   -3.404283   4.841579 H        1 UNL1     0.0428
     86 H         -4.071372   -3.537371   3.88731 H        1 UNL1     0.0317
     87 H         -4.186421   -2.011549   3.138322 H        1 UNL1     0.0317
     88 H         -6.956691   -0.488928   5.681381 H        1 UNL1     0.0429
     89 H         -8.071777   0.009842   4.407 H        1 UNL1     0.0429
     90 H         -9.407411   -1.295711   5.914872 H        1 UNL1     0.0308
     91 H         -9.518726   -3.701452   4.691711 H        1 UNL1     0.0233
     92 H         -10.088183   -2.225624   3.871256 H        1 UNL1     0.0233
     93 H         -8.519753   -2.900413   3.484876 H        1 UNL1     0.0233
     94 H         -7.523255   -3.606754   6.065159 H        1 UNL1     0.0233
     95 H         -7.162357   -2.144117   6.995092 H        1 UNL1     0.0233
     96 H         -8.69474   -3.008289   7.257768 H        1 UNL1     0.0233
     97 H         -3.976027   -8.291362   -4.565151 H        1 UNL1     0.0280
     98 H         -5.378947   -9.263911   -4.214222 H        1 UNL1     0.0280
     99 H         -5.582186   -7.647933   -4.953843 H        1 UNL1     0.0280
     100 H         -7.437319   -8.654767   -3.187693 H        1 UNL1     0.2922
     101 H         0.66547   -5.40279   2.40218 H        1 UNL1     0.0236
     102 H         0.001418   -5.472621   4.081531 H        1 UNL1     0.0236
     103 H         0.953593   -4.124706   3.541175 H        1 UNL1     0.0236
     104 H         0.091201   -1.059585   3.542366 H        1 UNL1     0.2098
     105 H         -0.989999   -0.025655   1.424792 H        1 UNL1     0.0234
     106 H         0.56   0.85866   1.343654 H        1 UNL1     0.0234
     107 H         0.0   0.0   0.0 H        1 UNL1     0.0234
     108 H         1.161665   -3.433509   0.216035 H        1 UNL1     0.2098
     109 H         -1.749444   -1.595274   -1.600362 H        1 UNL1     0.0234
     110 H         -1.226232   -0.223283   -0.572407 H        1 UNL1     0.0234
     111 H         -2.126559   0.062538   -2.020358 H        1 UNL1     0.0234
     112 H         1.462599   0.149324   0.606234 H        1 UNL1     0.0342
     113 H         2.776397   1.35927   0.825788 H        1 UNL1     0.0342
     114 H         1.338958   1.405747   1.850279 H        1 UNL1     0.0342
     115 H         4.289011   -0.229527   -2.174696 H        1 UNL1     0.0234
     116 H         4.006748   -1.930496   -1.790225 H        1 UNL1     0.0234
     117 H         3.160024   -1.094032   -3.108191 H        1 UNL1     0.0234
     118 H         -2.609748   -3.812236   -4.479003 H        1 UNL1     0.0309
     119 H         -4.218357   -4.307239   -3.866298 H        1 UNL1     0.0309
     120 H         -3.247301   -3.110416   -3.037551 H        1 UNL1     0.0309
     121 H         2.426624   -3.049667   -1.533801 H        1 UNL1     0.0524
     122 H         0.906972   -3.822945   -2.002371 H        1 UNL1     0.0524
     123 H         2.387256   -4.15006   -2.93805 H        1 UNL1     0.0524
@<TRIPOS>BOND
     1     1     2    1
     2     1    42    1
     3     2     3    2
     4     3     4    1
     5     4     5    2
     6     5     7    1
     7     6    75    1
     8     6    76    1
     9     6    77    1
    10     7     9   am
    11     9    10    1
    12    10    11    2
    13    10    43    1
    14    11    14    1
    15    11    15    1
    16    12    13   ar
    17    12    27   ar
    18    12    43    1
    19    13    14    1
    20    13    30   ar
    21    14    17    2
    22    15    16    1
    23    16    17    1
    24    16    18    1
    25    16    22    1
    26    18    19    1
    27    19    20    1
    28    20    21    1
    29    21    22    1
    30    23    24    1
    31    23    88    1
    32    23    89    1
    33    24    25    1
    34    24    26    1
    35    24    90    1
    36    25    91    1
    37    25    92    1
    38    25    93    1
    39    26    94    1
    40    26    95    1
    41    26    96    1
    42    27    28   ar
    43    28    29   ar
    44    29    30   ar
    45    29    31    1
    46    30    33    1
    47    31    32    1
    48    32    33    1
    49    32    35    1
    50    34    97    1
    51    34    98    1
    52    34    99    1
    53    35    61    1
    54    36    37    1
    55    36    60    1
    56    37    38    1
    57    38    39    1
    58    39    40    1
    59    40    41    1
    60    41    42    1
    61    45   100    1
    62    47   101    1
    63    47   102    1
    64    47   103    1
    65    48   104    1
    66    49   105    1
    67    49   106    1
    68    49   107    1
    69    50   108    1
    70    51    59    1
    71    52   109    1
    72    52   110    1
    73    52   111    1
    74    53    54    1
    75    54    55    2
    76    54    56    1
    77    56   112    1
    78    56   113    1
    79    56   114    1
    80    57   115    1
    81    57   116    1
    82    57   117    1
    83    58   118    1
    84    58   119    1
    85    58   120    1
    86    59   121    1
    87    59   122    1
    88    59   123    1
    89    60    61    2
    90     1    47    1
    91     1    62    1
    92     2    63    1
    93     3    64    1
    94     4    65    1
    95     5     6    1
    96     7     8    2
    97     9    78    1
    98    15    79    1
    99    18    80    1
   100    18    81    1
   101    19    82    1
   102    19    83    1
   103    20    23    1
   104    21    84    1
   105    21    85    1
   106    22    86    1
   107    22    87    1
   108    27    45    1
   109    28    34    1
   110    32    58    1
   111    33    46    2
   112    36    51    1
   113    36    66    1
   114    37    52    1
   115    37    67    1
   116    38    53    1
   117    38    68    1
   118    42    48    1
   119    42    72    1
   120    43    44    2
   121    60    73    1
   122    61    74    1
   123    39    69    1
   124    39    57    1
   125    40    70    1
   126    40    50    1
   127    41    71    1
   128    41    49    1
