@<TRIPOS>MOLECULE
*****
 123 128 0 0 0
SMALL
GASTEIGER

@<TRIPOS>ATOM
     1 C         1.68969   2.194034   4.617508 C.3        1 UNL1     0.0009
     2 C         1.284673   3.356127   6.004064 C.2        1 UNL1     -0.0787
     3 C         1.326731   4.681625   6.584867 C.2        1 UNL1     -0.0649
     4 C         0.58959   5.216167   8.012188 C.2        1 UNL1     -0.0542
     5 C         0.142296   6.350467   8.733555 C.2        1 UNL1     0.0115
     6 C         0.16838   7.903152   8.776112 C.3        1 UNL1     -0.0348
     7 C         -0.904792   6.14511   9.932899 C.2        1 UNL1     0.2441
     8 O         -0.578486   6.164435   11.111744 O.2        1 UNL1     -0.2702
     9 N         -2.256457   6.202452   9.550977 N.am        1 UNL1     -0.2772
     10 C         -2.70042   4.957697   9.167828 C.2        1 UNL1     0.1049
     11 C         -2.432161   4.601249   7.924766 C.2        1 UNL1     0.0801
     12 C         -2.749547   2.561764   9.885062 C.ar        1 UNL1     0.0753
     13 C         -2.25543   2.24255   8.58024 C.ar        1 UNL1     0.0305
     14 C         -2.206231   3.24164   7.515135 C.2        1 UNL1     0.0924
     15 N         -1.976303   5.334936   6.894998 N.pl3        1 UNL1     -0.3170
     16 C         -2.01903   4.511478   5.715869 C.3        1 UNL1     0.1275
     17 N         -1.876146   3.101359   6.234396 N.2        1 UNL1     -0.2557
     18 C         -3.430385   4.611847   5.145163 C.3        1 UNL1     0.0016
     19 C         -3.752561   6.077264   4.89951 C.3        1 UNL1     0.0026
     20 N         -2.771934   6.622528   3.971025 N.3        1 UNL1     -0.3018
     21 C         -1.377634   6.515538   4.405594 C.3        1 UNL1     0.0026
     22 C         -1.074334   5.035005   4.642082 C.3        1 UNL1     0.0016
     23 C         -3.155962   7.915294   3.440062 C.3        1 UNL1     0.0012
     24 C         -4.510865   7.821303   2.720923 C.3        1 UNL1     -0.0339
     25 C         -5.141536   9.209925   2.525886 C.3        1 UNL1     -0.0615
     26 C         -4.349494   7.090052   1.399556 C.3        1 UNL1     -0.0615
     27 C         -2.906577   1.577542   10.858082 C.ar        1 UNL1     0.1347
     28 C         -2.641579   0.238647   10.631839 C.ar        1 UNL1     0.0342
     29 C         -2.109959   -0.044794   9.355827 C.ar        1 UNL1     0.1435
     30 C         -1.913161   0.936212   8.383142 C.ar        1 UNL1     0.0774
     31 O         -1.903612   -1.314956   8.94459 O.3        1 UNL1     -0.4436
     32 C         -1.83041   -1.225497   7.513677 C.3        1 UNL1     0.3143
     33 C         -1.434738   0.208721   7.226148 C.2        1 UNL1     0.2504
     34 C         -3.021074   -0.900416   11.536614 C.3        1 UNL1     -0.0327
     35 O         -0.739196   -2.052171   7.090458 O.2        1 UNL1     -0.4528
     36 C         -1.660807   -3.298682   3.625645 C.3        1 UNL1     0.0854
     37 C         -2.01327   -2.471042   2.330151 C.3        1 UNL1     0.0236
     38 C         -1.122094   -2.81842   1.042953 C.3        1 UNL1     0.1131
     39 C         0.455314   -2.832468   1.160674 C.3        1 UNL1     0.0200
     40 C         1.251178   -1.625935   1.993331 C.3        1 UNL1     0.0661
     41 C         1.017012   0.041944   1.790957 C.3        1 UNL1     0.0091
     42 C         1.137277   1.415923   3.000553 C.3        1 UNL1     0.0661
     43 C         -3.173886   3.960828   10.13965 C.2        1 UNL1     0.2131
     44 O         -3.948155   4.278987   11.023969 O.2        1 UNL1     -0.2851
     45 O         -3.349862   1.979365   12.116444 O.3        1 UNL1     -0.5056
     46 O         -0.838987   0.64847   6.268257 O.2        1 UNL1     -0.2836
     47 C         3.197886   1.827158   4.644509 C.3        1 UNL1     -0.0566
     48 O         1.959841   2.275118   2.114953 O.3        1 UNL1     -0.3909
     49 C         -0.250188   0.263868   0.99569 C.3        1 UNL1     -0.0577
     50 O         1.336021   -1.938506   3.36913 O.3        1 UNL1     -0.3910
     51 O         -0.507371   -4.105371   3.546473 O.3        1 UNL1     -0.3753
     52 C         -2.442177   -1.007161   2.673722 C.3        1 UNL1     -0.0564
     53 O         -1.691458   -2.291338   -0.241701 O.3        1 UNL1     -0.4608
     54 C         -0.969315   -1.987877   -1.366134 C.2        1 UNL1     0.3042
     55 O         -0.176013   -2.714673   -1.963025 O.2        1 UNL1     -0.2512
     56 C         -1.261604   -0.62162   -1.918061 C.3        1 UNL1     0.0332
     57 C         0.905602   -4.343871   1.427273 C.3        1 UNL1     -0.0567
     58 C         -3.26484   -1.462512   6.986641 C.3        1 UNL1     0.0210
     59 C         -0.233761   -4.634388   2.249884 C.3        1 UNL1     0.0372
     60 C         -1.537178   -2.494063   4.871625 C.2        1 UNL1     -0.0208
     61 C         -0.61882   -2.532628   5.837998 C.2        1 UNL1     0.0882
     62 H         1.164069   1.397175   5.157369 H        1 UNL1     0.0365
     63 H         0.834633   2.667368   6.722077 H        1 UNL1     0.0576
     64 H         1.729023   5.535172   6.034659 H        1 UNL1     0.0615
     65 H         0.297601   4.29124   8.516901 H        1 UNL1     0.0622
     66 H         -2.527787   -3.957095   3.776923 H        1 UNL1     0.0645
     67 H         -3.000619   -2.858824   2.024657 H        1 UNL1     0.0362
     68 H         -1.413087   -3.869734   0.896039 H        1 UNL1     0.0741
     69 H         0.879077   -2.754944   0.168291 H        1 UNL1     0.0359
     70 H         2.279042   -1.776811   1.611504 H        1 UNL1     0.0600
     71 H         1.791818   0.254799   1.02851 H        1 UNL1     0.0348
     72 H         1.692137   0.574779   3.44092 H        1 UNL1     0.0602
     73 H         -2.408096   -1.898605   4.990696 H        1 UNL1     0.0628
     74 H         0.327038   -3.070946   5.768693 H        1 UNL1     0.1022
     75 H         -0.228207   8.2753   9.751437 H        1 UNL1     0.0279
     76 H         1.147903   8.373435   8.726746 H        1 UNL1     0.0279
     77 H         -0.537168   8.359933   8.066708 H        1 UNL1     0.0279
     78 H         -2.359949   6.824043   8.751607 H        1 UNL1     0.1553
     79 H         -2.024037   6.336671   6.860614 H        1 UNL1     0.1484
     80 H         -3.483206   4.029187   4.217541 H        1 UNL1     0.0317
     81 H         -4.162381   4.174132   5.832359 H        1 UNL1     0.0317
     82 H         -3.772641   6.652395   5.836918 H        1 UNL1     0.0428
     83 H         -4.763789   6.126035   4.49443 H        1 UNL1     0.0428
     84 H         -0.657204   6.859124   3.656769 H        1 UNL1     0.0428
     85 H         -1.173006   7.146211   5.281777 H        1 UNL1     0.0428
     86 H         -0.017604   4.981998   4.82782 H        1 UNL1     0.0317
     87 H         -1.196257   4.473629   3.70769 H        1 UNL1     0.0317
     88 H         -3.254326   8.614318   4.280885 H        1 UNL1     0.0429
     89 H         -2.381815   8.31915   2.774952 H        1 UNL1     0.0429
     90 H         -5.194176   7.208592   3.320827 H        1 UNL1     0.0308
     91 H         -5.139487   9.503188   1.471801 H        1 UNL1     0.0233
     92 H         -6.16788   9.22407   2.900085 H        1 UNL1     0.0233
     93 H         -4.605021   9.993138   3.075034 H        1 UNL1     0.0233
     94 H         -4.592491   7.757991   0.566103 H        1 UNL1     0.0233
     95 H         -3.313226   6.762453   1.27794 H        1 UNL1     0.0233
     96 H         -5.00473   6.216212   1.344452 H        1 UNL1     0.0233
     97 H         -4.097189   -1.034479   11.593495 H        1 UNL1     0.0280
     98 H         -2.616852   -1.85926   11.186643 H        1 UNL1     0.0280
     99 H         -2.642866   -0.705731   12.553546 H        1 UNL1     0.0280
     100 H         -3.933118   2.71786   12.108686 H        1 UNL1     0.2922
     101 H         3.741368   2.550344   5.252197 H        1 UNL1     0.0236
     102 H         3.630981   1.720629   3.650495 H        1 UNL1     0.0236
     103 H         3.379251   0.856504   5.13556 H        1 UNL1     0.0236
     104 H         2.814136   2.428982   2.563815 H        1 UNL1     0.2098
     105 H         -1.088153   -0.356409   1.303719 H        1 UNL1     0.0234
     106 H         -0.560733   1.305504   0.915172 H        1 UNL1     0.0234
     107 H         0.0   0.0   -0.0 H        1 UNL1     0.0234
     108 H         2.276012   -2.111318   3.56993 H        1 UNL1     0.2098
     109 H         -3.485392   -0.803052   2.39488 H        1 UNL1     0.0234
     110 H         -2.287224   -0.749219   3.726907 H        1 UNL1     0.0234
     111 H         -1.838817   -0.269886   2.127528 H        1 UNL1     0.0234
     112 H         -2.123884   -0.668377   -2.590097 H        1 UNL1     0.0342
     113 H         -1.419771   0.113165   -1.130078 H        1 UNL1     0.0342
     114 H         -0.39291   -0.296425   -2.506945 H        1 UNL1     0.0342
     115 H         0.08056   -5.050748   1.263508 H        1 UNL1     0.0234
     116 H         1.74594   -4.671806   0.81218 H        1 UNL1     0.0234
     117 H         1.155522   -4.548816   2.482488 H        1 UNL1     0.0234
     118 H         -3.823904   -2.178808   7.613836 H        1 UNL1     0.0309
     119 H         -3.845844   -0.539618   6.892284 H        1 UNL1     0.0309
     120 H         -3.276796   -1.930936   5.996418 H        1 UNL1     0.0309
     121 H         0.2784   -3.860156   1.679259 H        1 UNL1     0.0524
     122 H         0.431296   -5.513169   2.28838 H        1 UNL1     0.0524
     123 H         -1.159493   -4.914215   1.755101 H        1 UNL1     0.0524
@<TRIPOS>BOND
     1     1     2    1
     2     1    42    1
     3     2     3    2
     4     3     4    1
     5     4     5    2
     6     5     7    1
     7     6    75    1
     8     6    76    1
     9     6    77    1
    10     7     9   am
    11     9    10    1
    12    10    11    2
    13    10    43    1
    14    11    14    1
    15    11    15    1
    16    12    13   ar
    17    12    27   ar
    18    12    43    1
    19    13    14    1
    20    13    30   ar
    21    14    17    2
    22    15    16    1
    23    16    17    1
    24    16    18    1
    25    16    22    1
    26    18    19    1
    27    19    20    1
    28    20    21    1
    29    21    22    1
    30    23    24    1
    31    23    88    1
    32    23    89    1
    33    24    25    1
    34    24    26    1
    35    24    90    1
    36    25    91    1
    37    25    92    1
    38    25    93    1
    39    26    94    1
    40    26    95    1
    41    26    96    1
    42    27    28   ar
    43    28    29   ar
    44    29    30   ar
    45    29    31    1
    46    30    33    1
    47    31    32    1
    48    32    33    1
    49    32    35    1
    50    34    97    1
    51    34    98    1
    52    34    99    1
    53    35    61    1
    54    36    37    1
    55    36    60    1
    56    37    38    1
    57    38    39    1
    58    39    40    1
    59    40    41    1
    60    41    42    1
    61    45   100    1
    62    47   101    1
    63    47   102    1
    64    47   103    1
    65    48   104    1
    66    49   105    1
    67    49   106    1
    68    49   107    1
    69    50   108    1
    70    51    59    1
    71    52   109    1
    72    52   110    1
    73    52   111    1
    74    53    54    1
    75    54    55    2
    76    54    56    1
    77    56   112    1
    78    56   113    1
    79    56   114    1
    80    57   115    1
    81    57   116    1
    82    57   117    1
    83    58   118    1
    84    58   119    1
    85    58   120    1
    86    59   121    1
    87    59   122    1
    88    59   123    1
    89    60    61    2
    90     1    47    1
    91     1    62    1
    92     2    63    1
    93     3    64    1
    94     4    65    1
    95     5     6    1
    96     7     8    2
    97     9    78    1
    98    15    79    1
    99    18    80    1
   100    18    81    1
   101    19    82    1
   102    19    83    1
   103    20    23    1
   104    21    84    1
   105    21    85    1
   106    22    86    1
   107    22    87    1
   108    27    45    1
   109    28    34    1
   110    32    58    1
   111    33    46    2
   112    36    51    1
   113    36    66    1
   114    37    52    1
   115    37    67    1
   116    38    53    1
   117    38    68    1
   118    42    48    1
   119    42    72    1
   120    43    44    2
   121    60    73    1
   122    61    74    1
   123    39    69    1
   124    39    57    1
   125    40    70    1
   126    40    50    1
   127    41    71    1
   128    41    49    1
