@<TRIPOS>MOLECULE
*****
 123 128 0 0 0
SMALL
GASTEIGER

@<TRIPOS>ATOM
     1 C         5.166281   1.751719   0.490515 C.3        1 UNL1     0.0009
     2 C         6.601938   2.559765   -0.359771 C.2        1 UNL1     -0.0787
     3 C         7.88359   2.463221   -1.026175 C.2        1 UNL1     -0.0649
     4 C         8.759709   3.699748   -1.781008 C.2        1 UNL1     -0.0542
     5 C         9.779073   3.994082   -2.719807 C.2        1 UNL1     0.0115
     6 C         10.907373   3.370344   -3.586533 C.3        1 UNL1     -0.0348
     7 C         9.872953   5.477979   -3.324972 C.2        1 UNL1     0.2441
     8 O         10.696354   6.29993   -2.946908 O.2        1 UNL1     -0.2702
     9 N         9.122032   5.68544   -4.495113 N.am        1 UNL1     -0.2772
     10 C         7.839153   6.070806   -4.180412 C.2        1 UNL1     0.1049
     11 C         6.994274   5.098448   -3.888999 C.2        1 UNL1     0.0801
     12 C         6.540127   7.675106   -2.767583 C.ar        1 UNL1     0.0753
     13 C         5.782172   6.54617   -2.3208 C.ar        1 UNL1     0.0305
     14 C         5.899848   5.241165   -2.967457 C.2        1 UNL1     0.0924
     15 N         7.11788   3.769717   -4.049383 N.pl3        1 UNL1     -0.3170
     16 C         5.848642   3.169243   -3.735186 C.3        1 UNL1     0.1275
     17 N         5.211929   4.123056   -2.754085 N.2        1 UNL1     -0.2557
     18 C         4.995169   3.228812   -4.998412 C.3        1 UNL1     0.0016
     19 C         5.750079   2.546373   -6.128004 C.3        1 UNL1     0.0026
     20 N         6.021494   1.168128   -5.743554 N.3        1 UNL1     -0.3018
     21 C         6.785545   1.007187   -4.504726 C.3        1 UNL1     0.0026
     22 C         6.006763   1.696042   -3.382732 C.3        1 UNL1     0.0016
     23 C         6.466146   0.349979   -6.854212 C.3        1 UNL1     0.0012
     24 C         5.310451   0.100498   -7.835988 C.3        1 UNL1     -0.0339
     25 C         5.344832   1.093768   -9.009142 C.3        1 UNL1     -0.0615
     26 C         5.340477   -1.338525   -8.32085 C.3        1 UNL1     -0.0615
     27 C         6.334704   8.942134   -2.226694 C.ar        1 UNL1     0.1347
     28 C         5.375871   9.210024   -1.266004 C.ar        1 UNL1     0.0342
     29 C         4.675424   8.074588   -0.806307 C.ar        1 UNL1     0.1435
     30 C         4.895656   6.793206   -1.313042 C.ar        1 UNL1     0.0774
     31 O         3.634734   8.186532   0.047766 O.3        1 UNL1     -0.4436
     32 C         2.913973   6.95327   -0.095209 C.3        1 UNL1     0.3143
     33 C         3.927815   5.961467   -0.628747 C.2        1 UNL1     0.2504
     34 C         4.928149   10.575362   -0.823854 C.3        1 UNL1     -0.0327
     35 O         2.554291   6.515062   1.220791 O.2        1 UNL1     -0.4528
     36 C         -0.687399   4.580663   0.823763 C.3        1 UNL1     0.0854
     37 C         -0.992117   3.320667   -0.074614 C.3        1 UNL1     0.0236
     38 C         -1.591303   2.058417   0.712433 C.3        1 UNL1     0.1131
     39 C         -0.864519   1.526857   2.013009 C.3        1 UNL1     0.0200
     40 C         0.796807   1.382597   2.053272 C.3        1 UNL1     0.0661
     41 C         1.756244   0.615611   0.883305 C.3        1 UNL1     0.0091
     42 C         3.46328   0.980048   0.318843 C.3        1 UNL1     0.0661
     43 C         7.489812   7.469195   -3.889171 C.2        1 UNL1     0.2131
     44 O         7.888646   8.368254   -4.607058 O.2        1 UNL1     -0.2851
     45 O         7.145934   9.97831   -2.684606 O.3        1 UNL1     -0.5056
     46 O         3.944822   4.757825   -0.499086 O.2        1 UNL1     -0.2836
     47 C         5.563656   1.321233   1.928137 C.3        1 UNL1     -0.0566
     48 O         3.913003   -0.430775   0.399121 O.3        1 UNL1     -0.3909
     49 C         0.921663   0.383498   -0.35649 C.3        1 UNL1     -0.0577
     50 O         1.396221   2.600574   2.446918 O.3        1 UNL1     -0.3910
     51 O         -0.810686   4.389611   2.215068 O.3        1 UNL1     -0.3753
     52 C         0.051926   3.162085   -1.227773 C.3        1 UNL1     -0.0564
     53 O         -2.193502   1.019781   -0.188078 O.3        1 UNL1     -0.4608
     54 C         -2.426715   -0.287467   0.150511 C.2        1 UNL1     0.3042
     55 O         -1.857029   -1.285743   -0.288513 O.2        1 UNL1     -0.2512
     56 C         -3.4661   -0.45492   1.222123 C.3        1 UNL1     0.0332
     57 C         -1.585487   2.194121   3.275206 C.3        1 UNL1     -0.0567
     58 C         1.838075   7.198501   -1.178646 C.3        1 UNL1     0.0210
     59 C         -1.124472   5.567689   2.956376 C.3        1 UNL1     0.0372
     60 C         0.640989   5.211012   0.5931 C.2        1 UNL1     -0.0208
     61 C         1.553987   5.646174   1.462476 C.2        1 UNL1     0.0882
     62 H         4.689622   2.735433   0.578907 H        1 UNL1     0.0365
     63 H         6.334905   3.613256   -0.253378 H        1 UNL1     0.0576
     64 H         8.341907   1.496937   -1.248322 H        1 UNL1     0.0615
     65 H         8.272064   4.614441   -1.433124 H        1 UNL1     0.0622
     66 H         -1.432787   5.326883   0.514573 H        1 UNL1     0.0645
     67 H         -1.858199   3.629905   -0.685216 H        1 UNL1     0.0362
     68 H         -2.538553   2.494221   1.065016 H        1 UNL1     0.0741
     69 H         -1.195148   0.515319   2.207644 H        1 UNL1     0.0359
     70 H         0.909523   0.721551   2.933826 H        1 UNL1     0.0600
     71 H         1.800838   -0.405909   1.309294 H        1 UNL1     0.0348
     72 H         3.357476   1.467275   1.299011 H        1 UNL1     0.0602
     73 H         0.758237   5.4093   -0.443328 H        1 UNL1     0.0628
     74 H         1.537115   5.434521   2.532128 H        1 UNL1     0.1022
     75 H         10.952801   2.264962   -3.434544 H        1 UNL1     0.0279
     76 H         10.793163   3.454026   -4.664968 H        1 UNL1     0.0279
     77 H         11.912361   3.675547   -3.260112 H        1 UNL1     0.0279
     78 H         9.060471   4.81592   -5.020682 H        1 UNL1     0.1553
     79 H         7.783195   3.342814   -4.667479 H        1 UNL1     0.1484
     80 H         4.034369   2.73694   -4.804267 H        1 UNL1     0.0317
     81 H         4.767612   4.265631   -5.268364 H        1 UNL1     0.0317
     82 H         6.680203   3.078637   -6.375949 H        1 UNL1     0.0428
     83 H         5.124459   2.601832   -7.019393 H        1 UNL1     0.0428
     84 H         6.906837   -0.03595   -4.196563 H        1 UNL1     0.0428
     85 H         7.815296   1.376129   -4.608699 H        1 UNL1     0.0428
     86 H         6.523816   1.445263   -2.475123 H        1 UNL1     0.0317
     87 H         5.027756   1.217516   -3.257611 H        1 UNL1     0.0317
     88 H         7.261529   0.892884   -7.381387 H        1 UNL1     0.0429
     89 H         6.899656   -0.595769   -6.504349 H        1 UNL1     0.0429
     90 H         4.357576   0.218339   -7.306501 H        1 UNL1     0.0308
     91 H         6.297787   1.04423   -9.544422 H        1 UNL1     0.0233
     92 H         4.529766   0.893783   -9.708629 H        1 UNL1     0.0233
     93 H         5.218035   2.13248   -8.680759 H        1 UNL1     0.0233
     94 H         4.645694   -1.469783   -9.157441 H        1 UNL1     0.0233
     95 H         6.344018   -1.593312   -8.672915 H        1 UNL1     0.0233
     96 H         5.058474   -2.033691   -7.52512 H        1 UNL1     0.0233
     97 H         4.128905   10.52442   -0.090475 H        1 UNL1     0.0280
     98 H         5.738256   11.142132   -0.346619 H        1 UNL1     0.0280
     99 H         4.562414   11.143772   -1.694626 H        1 UNL1     0.0280
     100 H         6.678168   10.729364   -3.005128 H        1 UNL1     0.2922
     101 H         4.701428   0.886453   2.433296 H        1 UNL1     0.0236
     102 H         6.014074   2.126412   2.507615 H        1 UNL1     0.0236
     103 H         6.320541   0.519165   1.925952 H        1 UNL1     0.0236
     104 H         4.332738   -0.557313   1.272494 H        1 UNL1     0.2098
     105 H         0.708663   1.282569   -0.929302 H        1 UNL1     0.0234
     106 H         1.290946   -0.404148   -1.013126 H        1 UNL1     0.0234
     107 H         0.0   -0.0   0.0 H        1 UNL1     0.0234
     108 H         1.197417   3.25911   1.753683 H        1 UNL1     0.2098
     109 H         1.077032   3.049081   -0.848169 H        1 UNL1     0.0234
     110 H         -0.180184   2.335414   -1.907833 H        1 UNL1     0.0234
     111 H         0.072105   4.045503   -1.879779 H        1 UNL1     0.0234
     112 H         -3.597652   -1.516988   1.450273 H        1 UNL1     0.0342
     113 H         -3.222903   0.110476   2.120469 H        1 UNL1     0.0342
     114 H         -4.421188   -0.072485   0.836487 H        1 UNL1     0.0342
     115 H         -2.654895   1.94496   3.313597 H        1 UNL1     0.0234
     116 H         -1.148348   1.913842   4.235623 H        1 UNL1     0.0234
     117 H         -1.624984   3.295989   3.227588 H        1 UNL1     0.0234
     118 H         0.936812   7.684318   -0.765473 H        1 UNL1     0.0309
     119 H         2.206572   7.787539   -2.024487 H        1 UNL1     0.0309
     120 H         1.450042   6.266615   -1.604236 H        1 UNL1     0.0309
     121 H         -0.304048   6.27163   2.819531 H        1 UNL1     0.0524
     122 H         -2.044829   6.056324   2.595524 H        1 UNL1     0.0524
     123 H         -1.24175   5.328906   4.00962 H        1 UNL1     0.0524
@<TRIPOS>BOND
     1     1     2    1
     2     1    42    1
     3     2     3    2
     4     3     4    1
     5     4     5    2
     6     5     7    1
     7     6    75    1
     8     6    76    1
     9     6    77    1
    10     7     9   am
    11     9    10    1
    12    10    11    2
    13    10    43    1
    14    11    14    1
    15    11    15    1
    16    12    13   ar
    17    12    27   ar
    18    12    43    1
    19    13    14    1
    20    13    30   ar
    21    14    17    2
    22    15    16    1
    23    16    17    1
    24    16    18    1
    25    16    22    1
    26    18    19    1
    27    19    20    1
    28    20    21    1
    29    21    22    1
    30    23    24    1
    31    23    88    1
    32    23    89    1
    33    24    25    1
    34    24    26    1
    35    24    90    1
    36    25    91    1
    37    25    92    1
    38    25    93    1
    39    26    94    1
    40    26    95    1
    41    26    96    1
    42    27    28   ar
    43    28    29   ar
    44    29    30   ar
    45    29    31    1
    46    30    33    1
    47    31    32    1
    48    32    33    1
    49    32    35    1
    50    34    97    1
    51    34    98    1
    52    34    99    1
    53    35    61    1
    54    36    37    1
    55    36    60    1
    56    37    38    1
    57    38    39    1
    58    39    40    1
    59    40    41    1
    60    41    42    1
    61    45   100    1
    62    47   101    1
    63    47   102    1
    64    47   103    1
    65    48   104    1
    66    49   105    1
    67    49   106    1
    68    49   107    1
    69    50   108    1
    70    51    59    1
    71    52   109    1
    72    52   110    1
    73    52   111    1
    74    53    54    1
    75    54    55    2
    76    54    56    1
    77    56   112    1
    78    56   113    1
    79    56   114    1
    80    57   115    1
    81    57   116    1
    82    57   117    1
    83    58   118    1
    84    58   119    1
    85    58   120    1
    86    59   121    1
    87    59   122    1
    88    59   123    1
    89    60    61    2
    90     1    47    1
    91     1    62    1
    92     2    63    1
    93     3    64    1
    94     4    65    1
    95     5     6    1
    96     7     8    2
    97     9    78    1
    98    15    79    1
    99    18    80    1
   100    18    81    1
   101    19    82    1
   102    19    83    1
   103    20    23    1
   104    21    84    1
   105    21    85    1
   106    22    86    1
   107    22    87    1
   108    27    45    1
   109    28    34    1
   110    32    58    1
   111    33    46    2
   112    36    51    1
   113    36    66    1
   114    37    52    1
   115    37    67    1
   116    38    53    1
   117    38    68    1
   118    42    48    1
   119    42    72    1
   120    43    44    2
   121    60    73    1
   122    61    74    1
   123    39    69    1
   124    39    57    1
   125    40    70    1
   126    40    50    1
   127    41    71    1
   128    41    49    1
