@<TRIPOS>MOLECULE
*****
 123 128 0 0 0
SMALL
GASTEIGER

@<TRIPOS>ATOM
     1 C         3.186816   2.403542   1.04332 C.3        1 UNL1     0.0009
     2 C         3.521567   4.142943   0.496088 C.2        1 UNL1     -0.0787
     3 C         4.180702   5.07457   -0.394787 C.2        1 UNL1     -0.0649
     4 C         3.977539   6.753167   -0.480781 C.2        1 UNL1     -0.0542
     5 C         4.144988   7.902927   -1.291392 C.2        1 UNL1     0.0115
     6 C         4.782768   8.431979   -2.605417 C.3        1 UNL1     -0.0348
     7 C         3.332267   9.237623   -0.923886 C.2        1 UNL1     0.2441
     8 O         3.844111   10.193803   -0.357969 O.2        1 UNL1     -0.2702
     9 N         2.065974   9.340619   -1.525588 N.am        1 UNL1     -0.2772
     10 C         1.110533   8.738014   -0.73989 C.2        1 UNL1     0.1049
     11 C         0.992553   7.428869   -0.868119 C.2        1 UNL1     0.0801
     12 C         0.25755   8.623569   1.608866 C.ar        1 UNL1     0.0753
     13 C         0.347128   7.200127   1.48888 C.ar        1 UNL1     0.0305
     14 C         0.592563   6.554747   0.201131 C.2        1 UNL1     0.0924
     15 N         1.507861   6.601655   -1.793701 N.pl3        1 UNL1     -0.3170
     16 C         0.937903   5.297361   -1.583417 C.3        1 UNL1     0.1275
     17 N         0.608185   5.261997   -0.111086 N.2        1 UNL1     -0.2557
     18 C         -0.399052   5.264403   -2.317697 C.3        1 UNL1     0.0016
     19 C         -0.161149   5.617683   -3.777212 C.3        1 UNL1     0.0026
     20 N         0.772507   4.655087   -4.345302 N.3        1 UNL1     -0.3018
     21 C         2.067268   4.569718   -3.666572 C.3        1 UNL1     0.0026
     22 C         1.804781   4.209337   -2.203315 C.3        1 UNL1     0.0016
     23 C         0.836366   4.717545   -5.791906 C.3        1 UNL1     0.0012
     24 C         1.504342   3.453951   -6.356616 C.3        1 UNL1     -0.0339
     25 C         2.32468   3.767661   -7.618634 C.3        1 UNL1     -0.0615
     26 C         2.355513   2.792393   -5.286743 C.3        1 UNL1     -0.0615
     27 C         -0.095839   9.225452   2.814259 C.ar        1 UNL1     0.1347
     28 C         -0.419846   8.509454   3.952862 C.ar        1 UNL1     0.0342
     29 C         -0.277297   7.111433   3.824874 C.ar        1 UNL1     0.1435
     30 C         0.110812   6.496293   2.633994 C.ar        1 UNL1     0.0774
     31 O         -0.660311   6.270804   4.810597 O.3        1 UNL1     -0.4436
     32 C         -0.813638   4.998708   4.163189 C.3        1 UNL1     0.3143
     33 C         0.052978   5.078523   2.922698 C.2        1 UNL1     0.2504
     34 C         -1.046793   9.070655   5.198691 C.3        1 UNL1     -0.0327
     35 O         -0.22631   4.011353   5.019593 O.2        1 UNL1     -0.4528
     36 C         -2.16171   0.806647   4.393357 C.3        1 UNL1     0.0854
     37 C         -2.386994   0.026875   3.041054 C.3        1 UNL1     0.0236
     38 C         -1.946671   -1.514912   3.068486 C.3        1 UNL1     0.1131
     39 C         -0.506548   -1.911001   3.589472 C.3        1 UNL1     0.0200
     40 C         0.831705   -1.030081   3.125254 C.3        1 UNL1     0.0661
     41 C         1.235896   -0.600764   1.534679 C.3        1 UNL1     0.0091
     42 C         2.096398   0.88334   0.884776 C.3        1 UNL1     0.0661
     43 C         0.466192   9.434399   0.383598 C.2        1 UNL1     0.2131
     44 O         0.048415   10.570207   0.248906 O.2        1 UNL1     -0.2851
     45 O         -0.11549   10.617962   2.858615 O.3        1 UNL1     -0.5056
     46 O         0.592567   4.176931   2.321175 O.2        1 UNL1     -0.2836
     47 C         4.410445   1.834782   1.81093 C.3        1 UNL1     -0.0566
     48 O         3.017577   0.109757   0.01753 O.3        1 UNL1     -0.3909
     49 C         0.03671   -0.840563   0.644768 C.3        1 UNL1     -0.0577
     50 O         1.030803   0.071291   3.988423 O.3        1 UNL1     -0.3910
     51 O         -1.44921   0.113361   5.392922 O.3        1 UNL1     -0.3753
     52 C         -2.141334   0.939449   1.795337 C.3        1 UNL1     -0.0564
     53 O         -2.483363   -2.313348   1.916623 O.3        1 UNL1     -0.4608
     54 C         -2.698738   -3.666691   1.919102 C.2        1 UNL1     0.3042
     55 O         -1.997279   -4.535536   1.402477 O.2        1 UNL1     -0.2512
     56 C         -3.911869   -4.081158   2.702201 C.3        1 UNL1     0.0332
     57 C         -0.642986   -2.300703   5.134688 C.3        1 UNL1     -0.0567
     58 C         -2.29549   4.903528   3.731235 C.3        1 UNL1     0.0210
     59 C         -1.52211   0.695101   6.693741 C.3        1 UNL1     0.0372
     60 C         -1.514158   2.139106   4.250566 C.2        1 UNL1     -0.0208
     61 C         -0.527978   2.700507   4.951296 C.2        1 UNL1     0.0882
     62 H         2.49672   2.794921   1.800487 H        1 UNL1     0.0365
     63 H         2.973643   4.704373   1.255723 H        1 UNL1     0.0576
     64 H         4.779719   4.731014   -1.241106 H        1 UNL1     0.0615
     65 H         3.442168   6.998412   0.440477 H        1 UNL1     0.0622
     66 H         -3.175105   1.003024   4.770865 H        1 UNL1     0.0645
     67 H         -3.484573   -0.059724   2.961168 H        1 UNL1     0.0362
     68 H         -2.646373   -1.892526   3.829634 H        1 UNL1     0.0741
     69 H         -0.269953   -2.905711   3.235941 H        1 UNL1     0.0359
     70 H         1.633219   -1.743224   3.397397 H        1 UNL1     0.0600
     71 H         1.883301   -1.457162   1.261902 H        1 UNL1     0.0348
     72 H         2.34718   0.831407   1.954228 H        1 UNL1     0.0602
     73 H         -2.046931   2.711143   3.532112 H        1 UNL1     0.0628
     74 H         0.103653   2.167689   5.662903 H        1 UNL1     0.1022
     75 H         5.843925   8.094522   -2.689692 H        1 UNL1     0.0279
     76 H         4.347879   8.07181   -3.53505 H        1 UNL1     0.0279
     77 H         4.901954   9.525357   -2.610117 H        1 UNL1     0.0279
     78 H         2.073251   8.859237   -2.422414 H        1 UNL1     0.1553
     79 H         1.850028   6.908086   -2.685864 H        1 UNL1     0.1484
     80 H         -0.83933   4.265312   -2.214069 H        1 UNL1     0.0317
     81 H         -1.109025   5.967818   -1.869595 H        1 UNL1     0.0317
     82 H         0.212084   6.646046   -3.891569 H        1 UNL1     0.0428
     83 H         -1.127431   5.590044   -4.281776 H        1 UNL1     0.0428
     84 H         2.719061   3.784641   -4.06234 H        1 UNL1     0.0428
     85 H         2.654269   5.490509   -3.788591 H        1 UNL1     0.0428
     86 H         2.77151   4.025411   -1.772508 H        1 UNL1     0.0317
     87 H         1.309205   3.232803   -2.141003 H        1 UNL1     0.0317
     88 H         -0.190272   4.772013   -6.177057 H        1 UNL1     0.0429
     89 H         1.354997   5.624133   -6.129389 H        1 UNL1     0.0429
     90 H         0.729082   2.723514   -6.616706 H        1 UNL1     0.0308
     91 H         2.946733   4.656669   -7.477861 H        1 UNL1     0.0233
     92 H         2.962937   2.921804   -7.884645 H        1 UNL1     0.0233
     93 H         1.690057   3.958574   -8.492499 H        1 UNL1     0.0233
     94 H         3.115   2.153304   -5.749971 H        1 UNL1     0.0233
     95 H         2.871084   3.554269   -4.695395 H        1 UNL1     0.0233
     96 H         1.747852   2.177235   -4.617193 H        1 UNL1     0.0233
     97 H         -1.307422   10.118907   5.087015 H        1 UNL1     0.0280
     98 H         -1.980041   8.555197   5.46062 H        1 UNL1     0.0280
     99 H         -0.341563   8.977732   6.040779 H        1 UNL1     0.0280
     100 H         -0.93121   11.006589   2.595569 H        1 UNL1     0.2922
     101 H         4.199125   1.819367   2.879931 H        1 UNL1     0.0236
     102 H         5.339076   2.357879   1.585103 H        1 UNL1     0.0236
     103 H         4.610268   0.782094   1.549949 H        1 UNL1     0.0236
     104 H         2.665403   -0.799298   -0.050022 H        1 UNL1     0.2098
     105 H         0.107604   -1.731627   0.026067 H        1 UNL1     0.0234
     106 H         -0.924259   -0.81268   1.158274 H        1 UNL1     0.0234
     107 H         -0.0   0.0   0.0 H        1 UNL1     0.0234
     108 H         1.264656   0.838257   3.430889 H        1 UNL1     0.2098
     109 H         -3.048502   1.068071   1.188529 H        1 UNL1     0.0234
     110 H         -1.732099   1.921629   2.055319 H        1 UNL1     0.0234
     111 H         -1.390444   0.508547   1.119738 H        1 UNL1     0.0234
     112 H         -4.01397   -5.170419   2.68144 H        1 UNL1     0.0342
     113 H         -3.884777   -3.710717   3.725862 H        1 UNL1     0.0342
     114 H         -4.797896   -3.650521   2.21571 H        1 UNL1     0.0342
     115 H         -0.544366   -3.383469   5.293054 H        1 UNL1     0.0234
     116 H         0.083358   -1.806531   5.782969 H        1 UNL1     0.0234
     117 H         -1.649488   -2.115717   5.547817 H        1 UNL1     0.0234
     118 H         -2.507533   3.97076   3.179883 H        1 UNL1     0.0309
     119 H         -2.993836   4.990632   4.569643 H        1 UNL1     0.0309
     120 H         -2.577015   5.68722   3.019423 H        1 UNL1     0.0309
     121 H         -0.629004   0.393478   7.240312 H        1 UNL1     0.0524
     122 H         -1.533719   1.797237   6.6591 H        1 UNL1     0.0524
     123 H         -2.412678   0.349197   7.210783 H        1 UNL1     0.0524
@<TRIPOS>BOND
     1     1     2    1
     2     1    42    1
     3     2     3    2
     4     3     4    1
     5     4     5    2
     6     5     7    1
     7     6    75    1
     8     6    76    1
     9     6    77    1
    10     7     9   am
    11     9    10    1
    12    10    11    2
    13    10    43    1
    14    11    14    1
    15    11    15    1
    16    12    13   ar
    17    12    27   ar
    18    12    43    1
    19    13    14    1
    20    13    30   ar
    21    14    17    2
    22    15    16    1
    23    16    17    1
    24    16    18    1
    25    16    22    1
    26    18    19    1
    27    19    20    1
    28    20    21    1
    29    21    22    1
    30    23    24    1
    31    23    88    1
    32    23    89    1
    33    24    25    1
    34    24    26    1
    35    24    90    1
    36    25    91    1
    37    25    92    1
    38    25    93    1
    39    26    94    1
    40    26    95    1
    41    26    96    1
    42    27    28   ar
    43    28    29   ar
    44    29    30   ar
    45    29    31    1
    46    30    33    1
    47    31    32    1
    48    32    33    1
    49    32    35    1
    50    34    97    1
    51    34    98    1
    52    34    99    1
    53    35    61    1
    54    36    37    1
    55    36    60    1
    56    37    38    1
    57    38    39    1
    58    39    40    1
    59    40    41    1
    60    41    42    1
    61    45   100    1
    62    47   101    1
    63    47   102    1
    64    47   103    1
    65    48   104    1
    66    49   105    1
    67    49   106    1
    68    49   107    1
    69    50   108    1
    70    51    59    1
    71    52   109    1
    72    52   110    1
    73    52   111    1
    74    53    54    1
    75    54    55    2
    76    54    56    1
    77    56   112    1
    78    56   113    1
    79    56   114    1
    80    57   115    1
    81    57   116    1
    82    57   117    1
    83    58   118    1
    84    58   119    1
    85    58   120    1
    86    59   121    1
    87    59   122    1
    88    59   123    1
    89    60    61    2
    90     1    47    1
    91     1    62    1
    92     2    63    1
    93     3    64    1
    94     4    65    1
    95     5     6    1
    96     7     8    2
    97     9    78    1
    98    15    79    1
    99    18    80    1
   100    18    81    1
   101    19    82    1
   102    19    83    1
   103    20    23    1
   104    21    84    1
   105    21    85    1
   106    22    86    1
   107    22    87    1
   108    27    45    1
   109    28    34    1
   110    32    58    1
   111    33    46    2
   112    36    51    1
   113    36    66    1
   114    37    52    1
   115    37    67    1
   116    38    53    1
   117    38    68    1
   118    42    48    1
   119    42    72    1
   120    43    44    2
   121    60    73    1
   122    61    74    1
   123    39    69    1
   124    39    57    1
   125    40    70    1
   126    40    50    1
   127    41    71    1
   128    41    49    1
