@<TRIPOS>MOLECULE
*****
 123 128 0 0 0
SMALL
GASTEIGER

@<TRIPOS>ATOM
     1 C         0.030053   -0.612108   -5.443912 C.3        1 UNL1     0.0009
     2 C         -0.838588   -1.341066   -6.910582 C.2        1 UNL1     -0.0787
     3 C         -0.943267   -2.36767   -7.926048 C.2        1 UNL1     -0.0649
     4 C         -2.179391   -2.585198   -9.062286 C.2        1 UNL1     -0.0542
     5 C         -2.799908   -3.507438   -9.940643 C.2        1 UNL1     0.0115
     6 C         -2.666855   -4.915729   -10.582777 C.3        1 UNL1     -0.0348
     7 C         -4.276384   -3.189366   -10.484553 C.2        1 UNL1     0.2441
     8 O         -4.492991   -2.759929   -11.60936 O.2        1 UNL1     -0.2702
     9 N         -5.319042   -3.681291   -9.680174 N.am        1 UNL1     -0.2772
     10 C         -5.654042   -2.761811   -8.712881 C.2        1 UNL1     0.1049
     11 C         -4.903863   -2.760956   -7.625935 C.2        1 UNL1     0.0801
     12 C         -6.206704   -0.344975   -8.380013 C.ar        1 UNL1     0.0753
     13 C         -5.224002   -0.344401   -7.339385 C.ar        1 UNL1     0.0305
     14 C         -4.635715   -1.585938   -6.841839 C.2        1 UNL1     0.0924
     15 N         -3.987864   -3.651283   -7.207855 N.pl3        1 UNL1     -0.3170
     16 C         -3.582998   -3.274361   -5.879598 C.3        1 UNL1     0.1275
     17 N         -3.795888   -1.781091   -5.829152 N.2        1 UNL1     -0.2557
     18 C         -4.593833   -3.879225   -4.910035 C.3        1 UNL1     0.0016
     19 C         -4.655562   -5.380021   -5.145391 C.3        1 UNL1     0.0026
     20 N         -3.328099   -5.94132   -4.936076 N.3        1 UNL1     -0.3018
     21 C         -2.274101   -5.37714   -5.781746 C.3        1 UNL1     0.0026
     22 C         -2.226585   -3.86978   -5.525805 C.3        1 UNL1     0.0016
     23 C         -3.335896   -7.387541   -4.841056 C.3        1 UNL1     0.0012
     24 C         -2.018008   -7.894582   -4.234561 C.3        1 UNL1     -0.0339
     25 C         -2.262252   -8.68015   -2.935606 C.3        1 UNL1     -0.0615
     26 C         -1.260157   -8.724868   -5.255868 C.3        1 UNL1     -0.0615
     27 C         -6.850612   0.828506   -8.765296 C.ar        1 UNL1     0.1347
     28 C         -6.625192   2.051285   -8.158625 C.ar        1 UNL1     0.0342
     29 C         -5.618374   2.036868   -7.170053 C.ar        1 UNL1     0.1435
     30 C         -4.93919   0.875842   -6.79864 C.ar        1 UNL1     0.0774
     31 O         -5.359723   3.124503   -6.411663 O.3        1 UNL1     -0.4436
     32 C         -4.666365   2.610256   -5.264633 C.3        1 UNL1     0.3143
     33 C         -4.068336   1.294566   -5.720193 C.2        1 UNL1     0.2504
     34 C         -7.451925   3.293178   -8.343861 C.3        1 UNL1     -0.0327
     35 O         -3.571876   3.495323   -4.996301 O.2        1 UNL1     -0.4528
     36 C         -2.999773   3.336019   -1.247246 C.3        1 UNL1     0.0854
     37 C         -2.686198   2.084929   -0.33952 C.3        1 UNL1     0.0236
     38 C         -1.35715   2.210726   0.549046 C.3        1 UNL1     0.1131
     39 C         0.006184   2.633209   -0.132936 C.3        1 UNL1     0.0200
     40 C         0.458959   1.973137   -1.596404 C.3        1 UNL1     0.0661
     41 C         0.47415   0.320539   -1.978897 C.3        1 UNL1     0.0091
     42 C         0.171075   -0.534747   -3.573273 C.3        1 UNL1     0.0661
     43 C         -6.582435   -1.651822   -8.97435 C.2        1 UNL1     0.2131
     44 O         -7.63434   -1.84963   -9.554957 O.2        1 UNL1     -0.2851
     45 O         -7.760743   0.749387   -9.81736 O.3        1 UNL1     -0.5056
     46 O         -3.082208   0.730151   -5.302052 O.2        1 UNL1     -0.2836
     47 C         1.341495   0.089996   -5.887928 C.3        1 UNL1     -0.0566
     48 O         1.364005   -1.408602   -3.461866 O.3        1 UNL1     -0.3909
     49 C         -0.299951   -0.43256   -0.920076 C.3        1 UNL1     -0.0577
     50 O         -0.08709   2.71258   -2.670079 O.3        1 UNL1     -0.3910
     51 O         -1.996941   4.32543   -1.300396 O.3        1 UNL1     -0.3753
     52 C         -3.099255   0.745338   -1.032217 C.3        1 UNL1     -0.0564
     53 O         -1.267712   1.188191   1.64392 O.3        1 UNL1     -0.4608
     54 C         -0.860147   1.433024   2.929174 C.2        1 UNL1     0.3042
     55 O         -1.480095   1.200944   3.966306 O.2        1 UNL1     -0.2512
     56 C         0.529034   1.997111   3.022423 C.3        1 UNL1     0.0332
     57 C         0.170003   4.21313   0.054641 C.3        1 UNL1     -0.0567
     58 C         -5.744671   2.323902   -4.193751 C.3        1 UNL1     0.0210
     59 C         -2.308012   5.532098   -0.605377 C.3        1 UNL1     0.0372
     60 C         -3.362573   3.016522   -2.654889 C.2        1 UNL1     -0.0208
     61 C         -2.96056   3.572331   -3.798657 C.2        1 UNL1     0.0882
     62 H         -0.741391   0.166012   -5.397902 H        1 UNL1     0.0365
     63 H         -1.610516   -0.588563   -7.084753 H        1 UNL1     0.0576
     64 H         -0.273335   -3.230298   -7.939127 H        1 UNL1     0.0615
     65 H         -2.736508   -1.645159   -9.02447 H        1 UNL1     0.0622
     66 H         -3.897674   3.784188   -0.798954 H        1 UNL1     0.0645
     67 H         -3.471782   2.112383   0.435506 H        1 UNL1     0.0362
     68 H         -1.641326   3.062627   1.185467 H        1 UNL1     0.0741
     69 H         0.823043   2.350433   0.517592 H        1 UNL1     0.0359
     70 H         1.534408   2.234789   -1.599032 H        1 UNL1     0.0600
     71 H         1.517515   0.068431   -1.705425 H        1 UNL1     0.0348
     72 H         0.408702   0.50808   -3.828933 H        1 UNL1     0.0602
     73 H         -4.146604   2.300616   -2.659599 H        1 UNL1     0.0628
     74 H         -2.126139   4.269019   -3.885868 H        1 UNL1     0.1022
     75 H         -2.134937   -5.613084   -9.891551 H        1 UNL1     0.0279
     76 H         -3.594499   -5.447042   -10.783408 H        1 UNL1     0.0279
     77 H         -1.997864   -4.923586   -11.455755 H        1 UNL1     0.0279
     78 H         -5.014112   -4.528321   -9.205163 H        1 UNL1     0.1553
     79 H         -3.933152   -4.594526   -7.545836 H        1 UNL1     0.1484
     80 H         -4.287186   -3.647153   -3.882963 H        1 UNL1     0.0317
     81 H         -5.584712   -3.433855   -5.049521 H        1 UNL1     0.0317
     82 H         -5.032492   -5.619317   -6.150664 H        1 UNL1     0.0428
     83 H         -5.383389   -5.790919   -4.445047 H        1 UNL1     0.0428
     84 H         -1.274651   -5.758033   -5.549731 H        1 UNL1     0.0428
     85 H         -2.418261   -5.633656   -6.840393 H        1 UNL1     0.0428
     86 H         -1.363192   -3.513106   -6.056205 H        1 UNL1     0.0317
     87 H         -1.977257   -3.675728   -4.475436 H        1 UNL1     0.0317
     88 H         -4.161132   -7.6819   -4.179518 H        1 UNL1     0.0429
     89 H         -3.526115   -7.850328   -5.817999 H        1 UNL1     0.0429
     90 H         -1.373457   -7.036994   -4.008042 H        1 UNL1     0.0308
     91 H         -2.711263   -8.045706   -2.165558 H        1 UNL1     0.0233
     92 H         -2.914408   -9.537212   -3.119308 H        1 UNL1     0.0233
     93 H         -1.335439   -9.086252   -2.5126 H        1 UNL1     0.0233
     94 H         -1.772043   -8.69247   -6.223731 H        1 UNL1     0.0233
     95 H         -0.253416   -8.320441   -5.393252 H        1 UNL1     0.0233
     96 H         -1.181124   -9.769337   -4.941536 H        1 UNL1     0.0233
     97 H         -7.86563   3.65094   -7.405733 H        1 UNL1     0.0280
     98 H         -6.862629   4.12594   -8.749441 H        1 UNL1     0.0280
     99 H         -8.287108   3.081387   -9.0314 H        1 UNL1     0.0280
     100 H         -8.638253   0.527144   -9.560053 H        1 UNL1     0.2922
     101 H         1.733907   -0.395103   -6.781432 H        1 UNL1     0.0236
     102 H         2.08574   0.149395   -5.094483 H        1 UNL1     0.0236
     103 H         1.169095   1.136405   -6.190416 H        1 UNL1     0.0236
     104 H         2.068071   -1.018658   -4.016127 H        1 UNL1     0.2098
     105 H         -1.379776   -0.333815   -0.997784 H        1 UNL1     0.0234
     106 H         -0.023225   -1.481341   -0.813261 H        1 UNL1     0.0234
     107 H         0.0   0.0   0.0 H        1 UNL1     0.0234
     108 H         -0.32611   2.074589   -3.369797 H        1 UNL1     0.2098
     109 H         -4.175767   0.703981   -1.249295 H        1 UNL1     0.0234
     110 H         -2.532844   0.541494   -1.947296 H        1 UNL1     0.0234
     111 H         -2.891632   -0.12225   -0.391803 H        1 UNL1     0.0234
     112 H         0.662758   2.782829   2.272682 H        1 UNL1     0.0342
     113 H         0.754353   2.367755   4.021271 H        1 UNL1     0.0342
     114 H         1.242059   1.192044   2.797418 H        1 UNL1     0.0342
     115 H         -0.726173   4.666613   0.500074 H        1 UNL1     0.0234
     116 H         1.024319   4.500839   0.67061 H        1 UNL1     0.0234
     117 H         0.236477   4.76479   -0.898875 H        1 UNL1     0.0234
     118 H         -5.681103   3.025315   -3.343466 H        1 UNL1     0.0309
     119 H         -6.763061   2.338653   -4.594834 H        1 UNL1     0.0309
     120 H         -5.618695   1.343191   -3.722114 H        1 UNL1     0.0309
     121 H         -2.949876   6.129225   -1.252529 H        1 UNL1     0.0524
     122 H         -2.861303   5.345372   0.330059 H        1 UNL1     0.0524
     123 H         -1.397692   6.077736   -0.373665 H        1 UNL1     0.0524
@<TRIPOS>BOND
     1     1     2    1
     2     1    42    1
     3     2     3    2
     4     3     4    1
     5     4     5    2
     6     5     7    1
     7     6    75    1
     8     6    76    1
     9     6    77    1
    10     7     9   am
    11     9    10    1
    12    10    11    2
    13    10    43    1
    14    11    14    1
    15    11    15    1
    16    12    13   ar
    17    12    27   ar
    18    12    43    1
    19    13    14    1
    20    13    30   ar
    21    14    17    2
    22    15    16    1
    23    16    17    1
    24    16    18    1
    25    16    22    1
    26    18    19    1
    27    19    20    1
    28    20    21    1
    29    21    22    1
    30    23    24    1
    31    23    88    1
    32    23    89    1
    33    24    25    1
    34    24    26    1
    35    24    90    1
    36    25    91    1
    37    25    92    1
    38    25    93    1
    39    26    94    1
    40    26    95    1
    41    26    96    1
    42    27    28   ar
    43    28    29   ar
    44    29    30   ar
    45    29    31    1
    46    30    33    1
    47    31    32    1
    48    32    33    1
    49    32    35    1
    50    34    97    1
    51    34    98    1
    52    34    99    1
    53    35    61    1
    54    36    37    1
    55    36    60    1
    56    37    38    1
    57    38    39    1
    58    39    40    1
    59    40    41    1
    60    41    42    1
    61    45   100    1
    62    47   101    1
    63    47   102    1
    64    47   103    1
    65    48   104    1
    66    49   105    1
    67    49   106    1
    68    49   107    1
    69    50   108    1
    70    51    59    1
    71    52   109    1
    72    52   110    1
    73    52   111    1
    74    53    54    1
    75    54    55    2
    76    54    56    1
    77    56   112    1
    78    56   113    1
    79    56   114    1
    80    57   115    1
    81    57   116    1
    82    57   117    1
    83    58   118    1
    84    58   119    1
    85    58   120    1
    86    59   121    1
    87    59   122    1
    88    59   123    1
    89    60    61    2
    90     1    47    1
    91     1    62    1
    92     2    63    1
    93     3    64    1
    94     4    65    1
    95     5     6    1
    96     7     8    2
    97     9    78    1
    98    15    79    1
    99    18    80    1
   100    18    81    1
   101    19    82    1
   102    19    83    1
   103    20    23    1
   104    21    84    1
   105    21    85    1
   106    22    86    1
   107    22    87    1
   108    27    45    1
   109    28    34    1
   110    32    58    1
   111    33    46    2
   112    36    51    1
   113    36    66    1
   114    37    52    1
   115    37    67    1
   116    38    53    1
   117    38    68    1
   118    42    48    1
   119    42    72    1
   120    43    44    2
   121    60    73    1
   122    61    74    1
   123    39    69    1
   124    39    57    1
   125    40    70    1
   126    40    50    1
   127    41    71    1
   128    41    49    1
