@<TRIPOS>MOLECULE
*****
 123 128 0 0 0
SMALL
GASTEIGER

@<TRIPOS>ATOM
     1 C         5.009676   1.939727   0.83328 C.3        1 UNL1     0.0009
     2 C         6.806998   1.657145   0.477168 C.2        1 UNL1     -0.0787
     3 C         8.13051   1.274219   0.921837 C.2        1 UNL1     -0.0649
     4 C         9.526806   1.077822   -0.015256 C.2        1 UNL1     -0.0542
     5 C         10.81346   0.487588   -0.07203 C.2        1 UNL1     0.0115
     6 C         11.892566   -0.256434   0.761808 C.3        1 UNL1     -0.0348
     7 C         11.53516   0.333288   -1.497628 C.2        1 UNL1     0.2441
     8 O         12.425971   1.081043   -1.876895 O.2        1 UNL1     -0.2702
     9 N         11.259762   -0.870127   -2.170011 N.am        1 UNL1     -0.2772
     10 C         10.126996   -0.741368   -2.940456 C.2        1 UNL1     0.1049
     11 C         8.975614   -0.903958   -2.314272 C.2        1 UNL1     0.0801
     12 C         9.039421   0.741571   -4.636158 C.ar        1 UNL1     0.0753
     13 C         7.872951   0.701716   -3.807686 C.ar        1 UNL1     0.0305
     14 C         7.761812   -0.229353   -2.687057 C.2        1 UNL1     0.0924
     15 N         8.721265   -1.382688   -1.084374 N.pl3        1 UNL1     -0.3170
     16 C         7.294722   -1.514084   -0.95034 C.3        1 UNL1     0.1275
     17 N         6.729872   -0.471147   -1.883587 N.2        1 UNL1     -0.2557
     18 C         6.907592   -2.866021   -1.542033 C.3        1 UNL1     0.0016
     19 C         7.706846   -3.951495   -0.838807 C.3        1 UNL1     0.0026
     20 N         7.412682   -3.89982   0.586615 N.3        1 UNL1     -0.3018
     21 C         7.69447   -2.616643   1.233471 C.3        1 UNL1     0.0026
     22 C         6.877809   -1.541629   0.514233 C.3        1 UNL1     0.0016
     23 C         7.88347   -5.068898   1.302336 C.3        1 UNL1     0.0012
     24 C         9.354191   -5.354132   0.95973 C.3        1 UNL1     -0.0339
     25 C         9.647492   -6.863431   0.95281 C.3        1 UNL1     -0.0615
     26 C         9.714509   -4.708567   -0.366994 C.3        1 UNL1     -0.0615
     27 C         9.090058   1.544576   -5.773145 C.ar        1 UNL1     0.1347
     28 C         8.026497   2.317868   -6.203154 C.ar        1 UNL1     0.0342
     29 C         6.906306   2.300527   -5.34523 C.ar        1 UNL1     0.1435
     30 C         6.854696   1.528943   -4.183673 C.ar        1 UNL1     0.0774
     31 O         5.751171   2.914778   -5.681929 O.3        1 UNL1     -0.4436
     32 C         4.75721   2.300211   -4.84813 C.3        1 UNL1     0.3143
     33 C         5.521623   1.747496   -3.662216 C.2        1 UNL1     0.2504
     34 C         7.917048   3.003201   -7.536736 C.3        1 UNL1     -0.0327
     35 O         3.913387   3.345724   -4.350016 O.2        1 UNL1     -0.4528
     36 C         0.493746   1.775099   -3.852745 C.3        1 UNL1     0.0854
     37 C         0.087387   0.530374   -2.973509 C.3        1 UNL1     0.0236
     38 C         -1.07561   0.808484   -1.904941 C.3        1 UNL1     0.1131
     39 C         -0.960621   2.0432   -0.92284 C.3        1 UNL1     0.0200
     40 C         0.486496   2.392165   -0.170169 C.3        1 UNL1     0.0661
     41 C         1.456321   1.289224   0.678695 C.3        1 UNL1     0.0091
     42 C         3.278448   1.214452   0.87786 C.3        1 UNL1     0.0661
     43 C         10.16068   -0.168486   -4.294349 C.2        1 UNL1     0.2131
     44 O         11.009428   -0.520418   -5.093417 O.2        1 UNL1     -0.2851
     45 O         10.27916   1.560467   -6.499245 O.3        1 UNL1     -0.5056
     46 O         5.12543   1.552482   -2.534894 O.2        1 UNL1     -0.2836
     47 C         4.818128   3.260971   1.625495 C.3        1 UNL1     -0.0566
     48 O         3.223872   1.008845   2.345464 O.3        1 UNL1     -0.3909
     49 C         0.98887   -0.114379   0.364244 C.3        1 UNL1     -0.0577
     50 O         1.29309   3.212925   -0.990829 O.3        1 UNL1     -0.3910
     51 O         -0.081206   3.007005   -3.479555 O.3        1 UNL1     -0.3753
     52 C         1.317918   -0.376925   -2.64556 C.3        1 UNL1     -0.0564
     53 O         -1.681822   -0.441879   -1.337997 O.3        1 UNL1     -0.4608
     54 C         -1.367575   -1.720634   -1.717425 C.2        1 UNL1     0.3042
     55 O         -2.020714   -2.4648   -2.447811 O.2        1 UNL1     -0.2512
     56 C         -0.039514   -2.19291   -1.197885 C.3        1 UNL1     0.0332
     57 C         -1.772376   3.256507   -1.57638 C.3        1 UNL1     -0.0567
     58 C         4.17424   1.120043   -5.659844 C.3        1 UNL1     0.0210
     59 C         -1.382852   3.246883   -4.012511 C.3        1 UNL1     0.0372
     60 C         1.958848   2.005471   -3.977504 C.2        1 UNL1     -0.0208
     61 C         2.667918   3.131215   -3.884419 C.2        1 UNL1     0.0882
     62 H         4.858204   2.184577   -0.224934 H        1 UNL1     0.0365
     63 H         6.861705   1.981612   -0.56408 H        1 UNL1     0.0576
     64 H         8.309636   0.904337   1.933869 H        1 UNL1     0.0615
     65 H         9.268597   1.546069   -0.968963 H        1 UNL1     0.0622
     66 H         0.140725   1.52618   -4.863419 H        1 UNL1     0.0645
     67 H         -0.423102   -0.143836   -3.683016 H        1 UNL1     0.0362
     68 H         -1.899937   1.05692   -2.590716 H        1 UNL1     0.0741
     69 H         -1.630638   1.88733   -0.08786 H        1 UNL1     0.0359
     70 H         0.127447   3.068116   0.629353 H        1 UNL1     0.0600
     71 H         1.055627   1.427258   1.702095 H        1 UNL1     0.0348
     72 H         3.049427   2.243942   0.566387 H        1 UNL1     0.0602
     73 H         2.427531   1.108035   -4.297182 H        1 UNL1     0.0628
     74 H         2.276284   4.077461   -3.509614 H        1 UNL1     0.1022
     75 H         11.639507   -0.223579   1.848968 H        1 UNL1     0.0279
     76 H         11.997523   -1.323305   0.577856 H        1 UNL1     0.0279
     77 H         12.86625   0.254944   0.750311 H        1 UNL1     0.0279
     78 H         11.086529   -1.609024   -1.491706 H        1 UNL1     0.1553
     79 H         9.370286   -1.937821   -0.55756 H        1 UNL1     0.1484
     80 H         5.82881   -3.01653   -1.414197 H        1 UNL1     0.0317
     81 H         7.102132   -2.891696   -2.619598 H        1 UNL1     0.0317
     82 H         8.786036   -3.847289   -1.024287 H        1 UNL1     0.0428
     83 H         7.416688   -4.906824   -1.277218 H        1 UNL1     0.0428
     84 H         7.390693   -2.579063   2.284241 H        1 UNL1     0.0428
     85 H         8.771284   -2.399547   1.259124 H        1 UNL1     0.0428
     86 H         7.004316   -0.645901   1.09359 H        1 UNL1     0.0317
     87 H         5.806737   -1.757341   0.611036 H        1 UNL1     0.0317
     88 H         7.808706   -4.863729   2.378259 H        1 UNL1     0.0429
     89 H         7.252319   -5.943122   1.097017 H        1 UNL1     0.0429
     90 H         9.996654   -4.877002   1.709263 H        1 UNL1     0.0308
     91 H         8.877596   -7.415709   0.40568 H        1 UNL1     0.0233
     92 H         10.622151   -7.065484   0.502451 H        1 UNL1     0.0233
     93 H         9.684317   -7.286353   1.964055 H        1 UNL1     0.0233
     94 H         9.19069   -5.212138   -1.186669 H        1 UNL1     0.0233
     95 H         9.409316   -3.658415   -0.366622 H        1 UNL1     0.0233
     96 H         10.789796   -4.763596   -0.558558 H        1 UNL1     0.0233
     97 H         8.89069   3.253552   -7.947315 H        1 UNL1     0.0280
     98 H         7.427659   2.37016   -8.28841 H        1 UNL1     0.0280
     99 H         7.33856   3.935015   -7.426424 H        1 UNL1     0.0280
     100 H         11.05448   1.675193   -5.978342 H        1 UNL1     0.2922
     101 H         3.867029   3.236407   2.156968 H        1 UNL1     0.0236
     102 H         4.917027   4.151009   1.004984 H        1 UNL1     0.0236
     103 H         5.577316   3.383688   2.415918 H        1 UNL1     0.0236
     104 H         2.565014   1.633743   2.706545 H        1 UNL1     0.2098
     105 H         1.569728   -0.619833   -0.403175 H        1 UNL1     0.0234
     106 H         0.869216   -0.760088   1.234112 H        1 UNL1     0.0234
     107 H         -0.0   0.0   0.0 H        1 UNL1     0.0234
     108 H         1.485262   2.709342   -1.805226 H        1 UNL1     0.2098
     109 H         1.153094   -0.994145   -1.751365 H        1 UNL1     0.0234
     110 H         1.615925   -1.017137   -3.482856 H        1 UNL1     0.0234
     111 H         2.215437   0.219376   -2.433825 H        1 UNL1     0.0234
     112 H         0.275497   -3.08882   -1.741447 H        1 UNL1     0.0342
     113 H         0.721217   -1.415584   -1.251699 H        1 UNL1     0.0342
     114 H         -0.162109   -2.466065   -0.140756 H        1 UNL1     0.0342
     115 H         -2.111423   3.976221   -0.818589 H        1 UNL1     0.0234
     116 H         -1.209936   3.81263   -2.329001 H        1 UNL1     0.0234
     117 H         -2.733177   2.951608   -2.025644 H        1 UNL1     0.0234
     118 H         3.536735   0.465425   -5.040109 H        1 UNL1     0.0309
     119 H         3.608493   1.44186   -6.539939 H        1 UNL1     0.0309
     120 H         4.949825   0.44052   -6.029739 H        1 UNL1     0.0309
     121 H         -1.524566   4.326093   -4.063311 H        1 UNL1     0.0524
     122 H         -1.496364   2.848686   -5.034563 H        1 UNL1     0.0524
     123 H         -2.138905   2.799212   -3.373709 H        1 UNL1     0.0524
@<TRIPOS>BOND
     1     1     2    1
     2     1    42    1
     3     2     3    2
     4     3     4    1
     5     4     5    2
     6     5     7    1
     7     6    75    1
     8     6    76    1
     9     6    77    1
    10     7     9   am
    11     9    10    1
    12    10    11    2
    13    10    43    1
    14    11    14    1
    15    11    15    1
    16    12    13   ar
    17    12    27   ar
    18    12    43    1
    19    13    14    1
    20    13    30   ar
    21    14    17    2
    22    15    16    1
    23    16    17    1
    24    16    18    1
    25    16    22    1
    26    18    19    1
    27    19    20    1
    28    20    21    1
    29    21    22    1
    30    23    24    1
    31    23    88    1
    32    23    89    1
    33    24    25    1
    34    24    26    1
    35    24    90    1
    36    25    91    1
    37    25    92    1
    38    25    93    1
    39    26    94    1
    40    26    95    1
    41    26    96    1
    42    27    28   ar
    43    28    29   ar
    44    29    30   ar
    45    29    31    1
    46    30    33    1
    47    31    32    1
    48    32    33    1
    49    32    35    1
    50    34    97    1
    51    34    98    1
    52    34    99    1
    53    35    61    1
    54    36    37    1
    55    36    60    1
    56    37    38    1
    57    38    39    1
    58    39    40    1
    59    40    41    1
    60    41    42    1
    61    45   100    1
    62    47   101    1
    63    47   102    1
    64    47   103    1
    65    48   104    1
    66    49   105    1
    67    49   106    1
    68    49   107    1
    69    50   108    1
    70    51    59    1
    71    52   109    1
    72    52   110    1
    73    52   111    1
    74    53    54    1
    75    54    55    2
    76    54    56    1
    77    56   112    1
    78    56   113    1
    79    56   114    1
    80    57   115    1
    81    57   116    1
    82    57   117    1
    83    58   118    1
    84    58   119    1
    85    58   120    1
    86    59   121    1
    87    59   122    1
    88    59   123    1
    89    60    61    2
    90     1    47    1
    91     1    62    1
    92     2    63    1
    93     3    64    1
    94     4    65    1
    95     5     6    1
    96     7     8    2
    97     9    78    1
    98    15    79    1
    99    18    80    1
   100    18    81    1
   101    19    82    1
   102    19    83    1
   103    20    23    1
   104    21    84    1
   105    21    85    1
   106    22    86    1
   107    22    87    1
   108    27    45    1
   109    28    34    1
   110    32    58    1
   111    33    46    2
   112    36    51    1
   113    36    66    1
   114    37    52    1
   115    37    67    1
   116    38    53    1
   117    38    68    1
   118    42    48    1
   119    42    72    1
   120    43    44    2
   121    60    73    1
   122    61    74    1
   123    39    69    1
   124    39    57    1
   125    40    70    1
   126    40    50    1
   127    41    71    1
   128    41    49    1
