@<TRIPOS>MOLECULE
*****
 123 128 0 0 0
SMALL
GASTEIGER

@<TRIPOS>ATOM
     1 C         -4.010267   -0.81748   -2.541813 C.3        1 UNL1     0.0009
     2 C         -4.751406   -2.33543   -3.305735 C.2        1 UNL1     -0.0787
     3 C         -5.164888   -3.07767   -4.47798 C.2        1 UNL1     -0.0649
     4 C         -5.746971   -4.665755   -4.552284 C.2        1 UNL1     -0.0542
     5 C         -5.956972   -5.787254   -5.392058 C.2        1 UNL1     0.0115
     6 C         -5.942238   -6.272375   -6.867782 C.3        1 UNL1     -0.0348
     7 C         -6.195096   -7.226189   -4.721422 C.2        1 UNL1     0.2441
     8 O         -7.300987   -7.739971   -4.623661 O.2        1 UNL1     -0.2702
     9 N         -5.024435   -7.969507   -4.490808 N.am        1 UNL1     -0.2772
     10 C         -4.496423   -7.663476   -3.257573 C.2        1 UNL1     0.1049
     11 C         -3.742103   -6.580941   -3.199764 C.2        1 UNL1     0.0801
     12 C         -5.107528   -7.413346   -0.844832 C.ar        1 UNL1     0.0753
     13 C         -4.451591   -6.142054   -0.891444 C.ar        1 UNL1     0.0305
     14 C         -3.634095   -5.744339   -2.035373 C.2        1 UNL1     0.0924
     15 N         -3.226651   -5.833342   -4.19069 N.pl3        1 UNL1     -0.3170
     16 C         -2.337981   -4.869723   -3.597431 C.3        1 UNL1     0.1275
     17 N         -2.882456   -4.660356   -2.205513 N.2        1 UNL1     -0.2557
     18 C         -0.983487   -5.550243   -3.424398 C.3        1 UNL1     0.0016
     19 C         -0.527292   -6.076225   -4.775996 C.3        1 UNL1     0.0026
     20 N         -0.43752   -4.959455   -5.706477 N.3        1 UNL1     -0.3018
     21 C         -1.677889   -4.203515   -5.891971 C.3        1 UNL1     0.0026
     22 C         -2.115484   -3.680616   -4.522671 C.3        1 UNL1     0.0016
     23 C         0.268279   -5.297251   -6.926471 C.3        1 UNL1     0.0012
     24 C         1.74588   -5.596773   -6.628586 C.3        1 UNL1     -0.0339
     25 C         2.037501   -7.105142   -6.690526 C.3        1 UNL1     -0.0615
     26 C         2.637328   -4.815615   -7.578266 C.3        1 UNL1     -0.0615
     27 C         -5.784448   -7.834793   0.297219 C.ar        1 UNL1     0.1347
     28 C         -5.84015   -7.091912   1.463013 C.ar        1 UNL1     0.0342
     29 C         -5.228977   -5.822924   1.37758 C.ar        1 UNL1     0.1435
     30 C         -4.578288   -5.372285   0.228341 C.ar        1 UNL1     0.0774
     31 O         -5.103337   -5.026783   2.46173 O.3        1 UNL1     -0.4436
     32 C         -4.061315   -4.102528   2.114146 C.3        1 UNL1     0.3143
     33 C         -4.041162   -4.079699   0.599126 C.2        1 UNL1     0.2504
     34 C         -6.327078   -7.581845   2.798291 C.3        1 UNL1     -0.0327
     35 O         -4.483391   -2.802863   2.545391 O.2        1 UNL1     -0.4528
     36 C         -1.306367   -0.900517   3.379469 C.3        1 UNL1     0.0854
     37 C         -0.060052   -0.592301   2.463378 C.3        1 UNL1     0.0236
     38 C         0.323297   0.960265   2.343687 C.3        1 UNL1     0.1131
     39 C         -0.791791   2.017646   1.968462 C.3        1 UNL1     0.0200
     40 C         -1.891211   1.692242   0.756924 C.3        1 UNL1     0.0661
     41 C         -1.516716   1.13974   -0.802597 C.3        1 UNL1     0.0091
     42 C         -2.456216   0.043243   -1.934162 C.3        1 UNL1     0.0661
     43 C         -4.9673   -8.306377   -2.021731 C.2        1 UNL1     0.2131
     44 O         -5.122089   -9.513197   -1.973122 O.2        1 UNL1     -0.2851
     45 O         -6.434758   -9.065941   0.244215 O.3        1 UNL1     -0.5056
     46 O         -3.683288   -3.187024   -0.136342 O.2        1 UNL1     -0.2836
     47 C         -5.026067   0.355867   -2.5791 C.3        1 UNL1     -0.0566
     48 O         -2.283327   0.923676   -3.114867 O.3        1 UNL1     -0.3909
     49 C         -0.080484   0.666029   -0.8207 C.3        1 UNL1     -0.0577
     50 O         -3.003317   0.984097   1.266309 O.3        1 UNL1     -0.3910
     51 O         -2.029154   0.221207   3.834159 O.3        1 UNL1     -0.3753
     52 C         0.018287   -1.564442   1.241185 C.3        1 UNL1     -0.0564
     53 O         1.689968   1.199026   1.771383 O.3        1 UNL1     -0.4608
     54 C         2.325223   2.411674   1.709219 C.2        1 UNL1     0.3042
     55 O         2.685894   3.115078   2.652076 O.2        1 UNL1     -0.2512
     56 C         2.639584   2.854815   0.308678 C.3        1 UNL1     0.0332
     57 C         -1.349038   2.636125   3.334161 C.3        1 UNL1     -0.0567
     58 C         -2.738868   -4.723336   2.621356 C.3        1 UNL1     0.0210
     59 C         -2.150608   1.280561   2.886063 C.3        1 UNL1     0.0372
     60 C         -2.299126   -1.842565   2.794544 C.2        1 UNL1     -0.0208
     61 C         -3.630938   -1.781986   2.757809 C.2        1 UNL1     0.0882
     62 H         -4.111195   -1.287573   -1.556147 H        1 UNL1     0.0365
     63 H         -5.032199   -2.896713   -2.412098 H        1 UNL1     0.0576
     64 H         -4.97362   -2.706607   -5.487354 H        1 UNL1     0.0615
     65 H         -5.978343   -4.907481   -3.511362 H        1 UNL1     0.0622
     66 H         -0.884844   -1.412792   4.255791 H        1 UNL1     0.0645
     67 H         0.797494   -0.986607   3.035827 H        1 UNL1     0.0362
     68 H         0.580587   1.167675   3.393594 H        1 UNL1     0.0741
     69 H         -0.310891   2.920396   1.61606 H        1 UNL1     0.0359
     70 H         -2.275682   2.713011   0.569112 H        1 UNL1     0.0600
     71 H         -1.432883   2.107203   -1.335461 H        1 UNL1     0.0348
     72 H         -3.185677   0.4213   -1.203221 H        1 UNL1     0.0602
     73 H         -1.798933   -2.722617   2.474288 H        1 UNL1     0.0628
     74 H         -4.215248   -0.897226   3.012797 H        1 UNL1     0.1022
     75 H         -6.176102   -7.362855   -6.924313 H        1 UNL1     0.0279
     76 H         -6.688986   -5.838073   -7.528705 H        1 UNL1     0.0279
     77 H         -4.937949   -6.242547   -7.315236 H        1 UNL1     0.0279
     78 H         -4.324924   -7.731951   -5.191043 H        1 UNL1     0.1553
     79 H         -3.128256   -6.153583   -5.136575 H        1 UNL1     0.1484
     80 H         -0.269201   -4.825903   -3.014651 H        1 UNL1     0.0317
     81 H         -1.047302   -6.370737   -2.701648 H        1 UNL1     0.0317
     82 H         -1.201936   -6.856491   -5.158034 H        1 UNL1     0.0428
     83 H         0.439337   -6.55911   -4.629364 H        1 UNL1     0.0428
     84 H         -1.563667   -3.323628   -6.532722 H        1 UNL1     0.0428
     85 H         -2.449821   -4.801805   -6.395447 H        1 UNL1     0.0428
     86 H         -2.945403   -3.026044   -4.714399 H        1 UNL1     0.0317
     87 H         -1.350274   -3.007932   -4.116412 H        1 UNL1     0.0317
     88 H         -0.192871   -6.199434   -7.349201 H        1 UNL1     0.0429
     89 H         0.168843   -4.503102   -7.677613 H        1 UNL1     0.0429
     90 H         1.990028   -5.234937   -5.622763 H        1 UNL1     0.0308
     91 H         3.096722   -7.29777   -6.885582 H        1 UNL1     0.0233
     92 H         1.75047   -7.592779   -5.755949 H        1 UNL1     0.0233
     93 H         1.471366   -7.607713   -7.484093 H        1 UNL1     0.0233
     94 H         3.347461   -5.489312   -8.069875 H        1 UNL1     0.0233
     95 H         2.030782   -4.34051   -8.354372 H        1 UNL1     0.0233
     96 H         3.202979   -4.043009   -7.04998 H        1 UNL1     0.0233
     97 H         -6.75485   -6.781506   3.394697 H        1 UNL1     0.0280
     98 H         -7.117038   -8.337703   2.698811 H        1 UNL1     0.0280
     99 H         -5.485676   -8.019579   3.360009 H        1 UNL1     0.0280
     100 H         -7.332649   -9.022779   -0.034265 H        1 UNL1     0.2922
     101 H         -4.898597   0.923378   -3.500696 H        1 UNL1     0.0236
     102 H         -4.977774   0.992848   -1.696543 H        1 UNL1     0.0236
     103 H         -6.069247   -0.00036   -2.611814 H        1 UNL1     0.0236
     104 H         -2.291092   1.847839   -2.797327 H        1 UNL1     0.2098
     105 H         0.201955   0.122785   -1.71899 H        1 UNL1     0.0234
     106 H         0.656393   1.437773   -0.598549 H        1 UNL1     0.0234
     107 H         0.0   0.0   0.0 H        1 UNL1     0.0234
     108 H         -2.665754   0.153534   1.653588 H        1 UNL1     0.2098
     109 H         -0.930469   -1.615711   0.688967 H        1 UNL1     0.0234
     110 H         0.832155   -1.321572   0.549537 H        1 UNL1     0.0234
     111 H         0.234894   -2.593924   1.556136 H        1 UNL1     0.0234
     112 H         1.741667   3.267012   -0.161624 H        1 UNL1     0.0342
     113 H         3.459466   3.570927   0.280011 H        1 UNL1     0.0342
     114 H         2.947752   1.972677   -0.269275 H        1 UNL1     0.0342
     115 H         -1.46359   1.869535   4.112881 H        1 UNL1     0.0234
     116 H         -0.727271   3.433074   3.746868 H        1 UNL1     0.0234
     117 H         -2.382149   3.016212   3.255693 H        1 UNL1     0.0234
     118 H         -2.841814   -5.146492   3.635924 H        1 UNL1     0.0309
     119 H         -2.340336   -5.491885   1.9515 H        1 UNL1     0.0309
     120 H         -1.942771   -3.979785   2.73741 H        1 UNL1     0.0309
     121 H         -1.155548   1.694297   2.724711 H        1 UNL1     0.0524
     122 H         -2.525772   0.928209   1.910801 H        1 UNL1     0.0524
     123 H         -2.819123   2.048718   3.264368 H        1 UNL1     0.0524
@<TRIPOS>BOND
     1     1     2    1
     2     1    42    1
     3     2     3    2
     4     3     4    1
     5     4     5    2
     6     5     7    1
     7     6    75    1
     8     6    76    1
     9     6    77    1
    10     7     9   am
    11     9    10    1
    12    10    11    2
    13    10    43    1
    14    11    14    1
    15    11    15    1
    16    12    13   ar
    17    12    27   ar
    18    12    43    1
    19    13    14    1
    20    13    30   ar
    21    14    17    2
    22    15    16    1
    23    16    17    1
    24    16    18    1
    25    16    22    1
    26    18    19    1
    27    19    20    1
    28    20    21    1
    29    21    22    1
    30    23    24    1
    31    23    88    1
    32    23    89    1
    33    24    25    1
    34    24    26    1
    35    24    90    1
    36    25    91    1
    37    25    92    1
    38    25    93    1
    39    26    94    1
    40    26    95    1
    41    26    96    1
    42    27    28   ar
    43    28    29   ar
    44    29    30   ar
    45    29    31    1
    46    30    33    1
    47    31    32    1
    48    32    33    1
    49    32    35    1
    50    34    97    1
    51    34    98    1
    52    34    99    1
    53    35    61    1
    54    36    37    1
    55    36    60    1
    56    37    38    1
    57    38    39    1
    58    39    40    1
    59    40    41    1
    60    41    42    1
    61    45   100    1
    62    47   101    1
    63    47   102    1
    64    47   103    1
    65    48   104    1
    66    49   105    1
    67    49   106    1
    68    49   107    1
    69    50   108    1
    70    51    59    1
    71    52   109    1
    72    52   110    1
    73    52   111    1
    74    53    54    1
    75    54    55    2
    76    54    56    1
    77    56   112    1
    78    56   113    1
    79    56   114    1
    80    57   115    1
    81    57   116    1
    82    57   117    1
    83    58   118    1
    84    58   119    1
    85    58   120    1
    86    59   121    1
    87    59   122    1
    88    59   123    1
    89    60    61    2
    90     1    47    1
    91     1    62    1
    92     2    63    1
    93     3    64    1
    94     4    65    1
    95     5     6    1
    96     7     8    2
    97     9    78    1
    98    15    79    1
    99    18    80    1
   100    18    81    1
   101    19    82    1
   102    19    83    1
   103    20    23    1
   104    21    84    1
   105    21    85    1
   106    22    86    1
   107    22    87    1
   108    27    45    1
   109    28    34    1
   110    32    58    1
   111    33    46    2
   112    36    51    1
   113    36    66    1
   114    37    52    1
   115    37    67    1
   116    38    53    1
   117    38    68    1
   118    42    48    1
   119    42    72    1
   120    43    44    2
   121    60    73    1
   122    61    74    1
   123    39    69    1
   124    39    57    1
   125    40    70    1
   126    40    50    1
   127    41    71    1
   128    41    49    1
