@<TRIPOS>MOLECULE
*****
 123 128 0 0 0
SMALL
GASTEIGER

@<TRIPOS>ATOM
     1 C         2.397645   -2.650994   -2.279152 C.3        1 UNL1     0.0009
     2 C         2.123932   -3.204859   -4.027109 C.2        1 UNL1     -0.0787
     3 C         1.718065   -4.222807   -4.973206 C.2        1 UNL1     -0.0649
     4 C         1.556219   -4.077728   -6.652228 C.2        1 UNL1     -0.0542
     5 C         0.964372   -4.63226   -7.813818 C.2        1 UNL1     0.0115
     6 C         0.182274   -5.856891   -8.363292 C.3        1 UNL1     -0.0348
     7 C         0.867427   -3.733989   -9.140732 C.2        1 UNL1     0.2441
     8 O         1.627291   -3.865598   -10.090369 O.2        1 UNL1     -0.2702
     9 N         -0.305776   -2.967074   -9.248386 N.am        1 UNL1     -0.2772
     10 C         -0.140865   -1.748046   -8.631866 C.2        1 UNL1     0.1049
     11 C         -0.325516   -1.727383   -7.324312 C.2        1 UNL1     0.0801
     12 C         1.415649   0.2044   -8.481699 C.ar        1 UNL1     0.0753
     13 C         1.345198   0.051207   -7.06037 C.ar        1 UNL1     0.0305
     14 C         0.368375   -0.836767   -6.433978 C.2        1 UNL1     0.0924
     15 N         -0.854479   -2.658277   -6.511807 N.pl3        1 UNL1     -0.3170
     16 C         -0.986371   -2.075375   -5.202959 C.3        1 UNL1     0.1275
     17 N         0.09674   -1.025933   -5.145817 N.2        1 UNL1     -0.2557
     18 C         -2.310953   -1.318754   -5.176331 C.3        1 UNL1     0.0016
     19 C         -3.427746   -2.280037   -5.550897 C.3        1 UNL1     0.0026
     20 N         -3.434827   -3.382458   -4.599242 N.3        1 UNL1     -0.3018
     21 C         -2.180886   -4.133267   -4.50821 C.3        1 UNL1     0.0026
     22 C         -1.073813   -3.149135   -4.126417 C.3        1 UNL1     0.0016
     23 C         -4.634521   -4.191456   -4.682308 C.3        1 UNL1     0.0012
     24 C         -4.470772   -5.290208   -5.744234 C.3        1 UNL1     -0.0339
     25 C         -5.631831   -6.296992   -5.695413 C.3        1 UNL1     -0.0615
     26 C         -4.329495   -4.666234   -7.121723 C.3        1 UNL1     -0.0615
     27 C         2.26542   1.141022   -9.065435 C.ar        1 UNL1     0.1347
     28 C         3.059782   2.004611   -8.33246 C.ar        1 UNL1     0.0342
     29 C         3.01043   1.802317   -6.936822 C.ar        1 UNL1     0.1435
     30 C         2.191025   0.843527   -6.33973 C.ar        1 UNL1     0.0774
     31 O         3.642301   2.635185   -6.081208 O.3        1 UNL1     -0.4436
     32 C         2.996818   2.415341   -4.817921 C.3        1 UNL1     0.3143
     33 C         2.392206   1.029459   -4.917857 C.2        1 UNL1     0.2504
     34 C         3.800787   3.195247   -8.874121 C.3        1 UNL1     -0.0327
     35 O         4.02349   2.351661   -3.820353 O.2        1 UNL1     -0.4528
     36 C         2.445411   3.643534   -0.618975 C.3        1 UNL1     0.0854
     37 C         1.166362   3.121989   0.142305 C.3        1 UNL1     0.0236
     38 C         1.40352   2.745433   1.682989 C.3        1 UNL1     0.1131
     39 C         2.595578   1.785211   2.082042 C.3        1 UNL1     0.0200
     40 C         2.90761   0.41028   1.190618 C.3        1 UNL1     0.0661
     41 C         1.766664   -0.760486   0.73767 C.3        1 UNL1     0.0091
     42 C         1.677217   -1.818887   -0.758053 C.3        1 UNL1     0.0661
     43 C         0.488137   -0.605094   -9.310373 C.2        1 UNL1     0.2131
     44 O         0.16703   -0.307796   -10.446701 O.2        1 UNL1     -0.2851
     45 O         2.307558   1.194787   -10.457115 O.3        1 UNL1     -0.5056
     46 O         2.151506   0.246283   -4.02648 O.2        1 UNL1     -0.2836
     47 C         3.685188   -3.299547   -1.703311 C.3        1 UNL1     -0.0566
     48 O         1.410473   -3.064951   0.000424 O.3        1 UNL1     -0.3909
     49 C         0.379122   -0.204665   0.968503 C.3        1 UNL1     -0.0577
     50 O         3.75921   0.70202   0.100944 O.3        1 UNL1     -0.3910
     51 O         3.662602   3.550756   0.086197 O.3        1 UNL1     -0.3753
     52 C         0.241803   2.27126   -0.788501 C.3        1 UNL1     -0.0564
     53 O         0.132628   2.593927   2.466702 O.3        1 UNL1     -0.4608
     54 C         0.008133   2.765449   3.820589 C.2        1 UNL1     0.3042
     55 O         -0.716607   3.567433   4.408307 O.2        1 UNL1     -0.2512
     56 C         0.830977   1.801502   4.627092 C.3        1 UNL1     0.0332
     57 C         3.838051   2.704333   2.493929 C.3        1 UNL1     -0.0567
     58 C         1.853761   3.452741   -4.724373 C.3        1 UNL1     0.0210
     59 C         4.188409   4.796829   0.540837 C.3        1 UNL1     0.0372
     60 C         2.675668   3.029966   -1.955268 C.2        1 UNL1     -0.0208
     61 C         3.794026   2.560256   -2.509696 C.2        1 UNL1     0.0882
     62 H         2.687162   -1.663279   -2.657717 H        1 UNL1     0.0365
     63 H         2.491562   -2.33542   -4.576101 H        1 UNL1     0.0576
     64 H         1.305464   -5.178906   -4.643442 H        1 UNL1     0.0615
     65 H         2.064929   -3.13777   -6.882825 H        1 UNL1     0.0622
     66 H         2.240311   4.706854   -0.806942 H        1 UNL1     0.0645
     67 H         0.524277   4.015524   0.231083 H        1 UNL1     0.0362
     68 H         1.683371   3.73577   2.073422 H        1 UNL1     0.0741
     69 H         2.407199   1.388982   3.070942 H        1 UNL1     0.0359
     70 H         3.550712   -0.138342   1.905107 H        1 UNL1     0.0600
     71 H         1.863088   -1.463555   1.588172 H        1 UNL1     0.0348
     72 H         2.719655   -1.475015   -0.691785 H        1 UNL1     0.0602
     73 H         1.79078   3.114999   -2.535778 H        1 UNL1     0.0628
     74 H         4.7251   2.387726   -1.968796 H        1 UNL1     0.1022
     75 H         0.866448   -6.728287   -8.503326 H        1 UNL1     0.0279
     76 H         -0.591264   -6.267671   -7.718335 H        1 UNL1     0.0279
     77 H         -0.18436   -5.70215   -9.388639 H        1 UNL1     0.0279
     78 H         -1.071841   -3.446229   -8.779737 H        1 UNL1     0.1553
     79 H         -1.433477   -3.412781   -6.831835 H        1 UNL1     0.1484
     80 H         -2.462902   -0.899094   -4.174552 H        1 UNL1     0.0317
     81 H         -2.292125   -0.47232   -5.871203 H        1 UNL1     0.0317
     82 H         -3.319644   -2.647826   -6.581896 H        1 UNL1     0.0428
     83 H         -4.362837   -1.719585   -5.527466 H        1 UNL1     0.0428
     84 H         -2.186314   -4.903573   -3.730772 H        1 UNL1     0.0428
     85 H         -1.968836   -4.688444   -5.432402 H        1 UNL1     0.0428
     86 H         -0.203604   -3.750574   -3.939349 H        1 UNL1     0.0317
     87 H         -1.289633   -2.703655   -3.147609 H        1 UNL1     0.0317
     88 H         -4.792515   -4.669219   -3.706564 H        1 UNL1     0.0429
     89 H         -5.518858   -3.57364   -4.884855 H        1 UNL1     0.0429
     90 H         -3.533432   -5.829076   -5.561947 H        1 UNL1     0.0308
     91 H         -5.725914   -6.74777   -4.702916 H        1 UNL1     0.0233
     92 H         -6.574612   -5.81252   -5.960101 H        1 UNL1     0.0233
     93 H         -5.500699   -7.120551   -6.407726 H        1 UNL1     0.0233
     94 H         -4.670824   -3.625593   -7.10179 H        1 UNL1     0.0233
     95 H         -3.279706   -4.670879   -7.428128 H        1 UNL1     0.0233
     96 H         -4.917326   -5.208496   -7.867629 H        1 UNL1     0.0233
     97 H         4.600165   3.513602   -8.211645 H        1 UNL1     0.0280
     98 H         4.277721   2.981709   -9.839622 H        1 UNL1     0.0280
     99 H         3.101844   4.037971   -9.002152 H        1 UNL1     0.0280
     100 H         1.667894   1.764757   -10.846457 H        1 UNL1     0.2922
     101 H         3.655785   -3.271049   -0.614285 H        1 UNL1     0.0236
     102 H         4.600281   -2.860539   -2.099368 H        1 UNL1     0.0236
     103 H         3.756527   -4.371257   -1.953396 H        1 UNL1     0.0236
     104 H         1.115813   -2.807779   0.895973 H        1 UNL1     0.2098
     105 H         -0.305841   -0.894568   1.454991 H        1 UNL1     0.0234
     106 H         0.353912   0.765471   1.464617 H        1 UNL1     0.0234
     107 H         0.0   0.0   0.0 H        1 UNL1     0.0234
     108 H         3.935386   -0.139173   -0.36287 H        1 UNL1     0.2098
     109 H         -0.746952   2.730987   -0.925342 H        1 UNL1     0.0234
     110 H         0.688682   2.065209   -1.767064 H        1 UNL1     0.0234
     111 H         0.050734   1.274956   -0.368005 H        1 UNL1     0.0234
     112 H         1.217285   2.299618   5.521515 H        1 UNL1     0.0342
     113 H         0.271045   0.905302   4.890048 H        1 UNL1     0.0342
     114 H         1.69029   1.490167   4.017325 H        1 UNL1     0.0342
     115 H         4.434483   2.249082   3.296552 H        1 UNL1     0.0234
     116 H         4.516172   2.930056   1.668551 H        1 UNL1     0.0234
     117 H         3.542866   3.658726   2.962909 H        1 UNL1     0.0234
     118 H         2.057681   4.226909   -3.964052 H        1 UNL1     0.0309
     119 H         1.63524   3.938639   -5.680591 H        1 UNL1     0.0309
     120 H         0.910469   3.009564   -4.386882 H        1 UNL1     0.0309
     121 H         3.833186   4.952718   1.559106 H        1 UNL1     0.0524
     122 H         5.290768   4.800217   0.569634 H        1 UNL1     0.0524
     123 H         3.850015   5.604527   -0.101975 H        1 UNL1     0.0524
@<TRIPOS>BOND
     1     1     2    1
     2     1    42    1
     3     2     3    2
     4     3     4    1
     5     4     5    2
     6     5     7    1
     7     6    75    1
     8     6    76    1
     9     6    77    1
    10     7     9   am
    11     9    10    1
    12    10    11    2
    13    10    43    1
    14    11    14    1
    15    11    15    1
    16    12    13   ar
    17    12    27   ar
    18    12    43    1
    19    13    14    1
    20    13    30   ar
    21    14    17    2
    22    15    16    1
    23    16    17    1
    24    16    18    1
    25    16    22    1
    26    18    19    1
    27    19    20    1
    28    20    21    1
    29    21    22    1
    30    23    24    1
    31    23    88    1
    32    23    89    1
    33    24    25    1
    34    24    26    1
    35    24    90    1
    36    25    91    1
    37    25    92    1
    38    25    93    1
    39    26    94    1
    40    26    95    1
    41    26    96    1
    42    27    28   ar
    43    28    29   ar
    44    29    30   ar
    45    29    31    1
    46    30    33    1
    47    31    32    1
    48    32    33    1
    49    32    35    1
    50    34    97    1
    51    34    98    1
    52    34    99    1
    53    35    61    1
    54    36    37    1
    55    36    60    1
    56    37    38    1
    57    38    39    1
    58    39    40    1
    59    40    41    1
    60    41    42    1
    61    45   100    1
    62    47   101    1
    63    47   102    1
    64    47   103    1
    65    48   104    1
    66    49   105    1
    67    49   106    1
    68    49   107    1
    69    50   108    1
    70    51    59    1
    71    52   109    1
    72    52   110    1
    73    52   111    1
    74    53    54    1
    75    54    55    2
    76    54    56    1
    77    56   112    1
    78    56   113    1
    79    56   114    1
    80    57   115    1
    81    57   116    1
    82    57   117    1
    83    58   118    1
    84    58   119    1
    85    58   120    1
    86    59   121    1
    87    59   122    1
    88    59   123    1
    89    60    61    2
    90     1    47    1
    91     1    62    1
    92     2    63    1
    93     3    64    1
    94     4    65    1
    95     5     6    1
    96     7     8    2
    97     9    78    1
    98    15    79    1
    99    18    80    1
   100    18    81    1
   101    19    82    1
   102    19    83    1
   103    20    23    1
   104    21    84    1
   105    21    85    1
   106    22    86    1
   107    22    87    1
   108    27    45    1
   109    28    34    1
   110    32    58    1
   111    33    46    2
   112    36    51    1
   113    36    66    1
   114    37    52    1
   115    37    67    1
   116    38    53    1
   117    38    68    1
   118    42    48    1
   119    42    72    1
   120    43    44    2
   121    60    73    1
   122    61    74    1
   123    39    69    1
   124    39    57    1
   125    40    70    1
   126    40    50    1
   127    41    71    1
   128    41    49    1
