@<TRIPOS>MOLECULE
*****
 123 128 0 0 0
SMALL
GASTEIGER

@<TRIPOS>ATOM
     1 C         2.752595   -4.18418   -2.219821 C.3        1 UNL1     0.0009
     2 C         2.710745   -5.982672   -2.667831 C.2        1 UNL1     -0.0787
     3 C         3.082549   -7.354599   -2.392828 C.2        1 UNL1     -0.0649
     4 C         2.583212   -8.751558   -3.208624 C.2        1 UNL1     -0.0542
     5 C         2.446947   -10.159182   -3.124334 C.2        1 UNL1     0.0115
     6 C         2.814661   -11.408804   -2.277839 C.3        1 UNL1     -0.0348
     7 C         1.46809   -10.9079   -4.153045 C.2        1 UNL1     0.2441
     8 O         1.87353   -11.521689   -5.130495 O.2        1 UNL1     -0.2702
     9 N         0.138018   -11.032938   -3.715521 N.am        1 UNL1     -0.2772
     10 C         -0.59327   -9.925596   -4.079298 C.2        1 UNL1     0.1049
     11 C         -0.498279   -8.877497   -3.28137 C.2        1 UNL1     0.0801
     12 C         -1.11378   -8.444286   -6.026635 C.ar        1 UNL1     0.0753
     13 C         -0.795219   -7.341034   -5.172256 C.ar        1 UNL1     0.0305
     14 C         -0.604575   -7.517005   -3.734291 C.2        1 UNL1     0.0924
     15 N         0.032653   -8.773857   -2.050965 N.pl3        1 UNL1     -0.3170
     16 C         -0.272543   -7.460053   -1.549938 C.3        1 UNL1     0.1275
     17 N         -0.404846   -6.605323   -2.78673 N.2        1 UNL1     -0.2557
     18 C         -1.664698   -7.524999   -0.929143 C.3        1 UNL1     0.0016
     19 C         -1.675446   -8.618035   0.127619 C.3        1 UNL1     0.0026
     20 N         -0.667774   -8.307385   1.132169 N.3        1 UNL1     -0.3018
     21 C         0.696677   -8.16355   0.620355 C.3        1 UNL1     0.0026
     22 C         0.6851   -7.057462   -0.43621 C.3        1 UNL1     0.0016
     23 C         -0.796691   -9.114921   2.328794 C.3        1 UNL1     0.0012
     24 C         -2.052286   -8.711813   3.117934 C.3        1 UNL1     -0.0339
     25 C         -1.832794   -8.85088   4.633368 C.3        1 UNL1     -0.0615
     26 C         -2.473909   -7.302171   2.741205 C.3        1 UNL1     -0.0615
     27 C         -1.412655   -8.251428   -7.373334 C.ar        1 UNL1     0.1347
     28 C         -1.463388   -7.003027   -7.967447 C.ar        1 UNL1     0.0342
     29 C         -1.098466   -5.936286   -7.118884 C.ar        1 UNL1     0.1435
     30 C         -0.761566   -6.118055   -5.776991 C.ar        1 UNL1     0.0774
     31 O         -1.204387   -4.650102   -7.518282 O.3        1 UNL1     -0.4436
     32 C         -1.215119   -3.891605   -6.299496 C.3        1 UNL1     0.3143
     33 C         -0.537012   -4.778546   -5.274938 C.2        1 UNL1     0.2504
     34 C         -2.017457   -6.697427   -9.331161 C.3        1 UNL1     -0.0327
     35 O         -0.36378   -2.756051   -6.496957 O.2        1 UNL1     -0.4528
     36 C         -1.778969   -0.000461   -4.303319 C.3        1 UNL1     0.0854
     37 C         -2.033054   0.002317   -2.746734 C.3        1 UNL1     0.0236
     38 C         -1.332961   1.205029   -1.949804 C.3        1 UNL1     0.1131
     39 C         0.207529   1.495462   -2.161486 C.3        1 UNL1     0.0200
     40 C         1.304844   0.240152   -2.211815 C.3        1 UNL1     0.0661
     41 C         1.427067   -1.018705   -1.08135 C.3        1 UNL1     0.0091
     42 C         1.930195   -2.769328   -1.29949 C.3        1 UNL1     0.0661
     43 C         -1.202964   -9.79148   -5.410703 C.2        1 UNL1     0.2131
     44 O         -1.824248   -10.716359   -5.901969 O.2        1 UNL1     -0.2851
     45 O         -1.666987   -9.382616   -8.1461 O.3        1 UNL1     -0.5056
     46 O         0.070936   -4.451989   -4.280145 O.2        1 UNL1     -0.2836
     47 C         4.142184   -3.577606   -2.553125 C.3        1 UNL1     -0.0566
     48 O         2.855679   -2.76667   -0.140789 O.3        1 UNL1     -0.3909
     49 C         0.185841   -1.02075   -0.217147 C.3        1 UNL1     -0.0577
     50 O         1.416726   -0.275419   -3.523071 O.3        1 UNL1     -0.3910
     51 O         -0.838295   0.937339   -4.775647 O.3        1 UNL1     -0.3753
     52 C         -2.106207   -1.447854   -2.166562 C.3        1 UNL1     -0.0564
     53 O         -1.863058   1.392359   -0.558319 O.3        1 UNL1     -0.4608
     54 C         -1.116766   1.742335   0.536439 C.2        1 UNL1     0.3042
     55 O         -0.725575   1.004981   1.440385 O.2        1 UNL1     -0.2512
     56 C         -0.714478   3.189617   0.552331 C.3        1 UNL1     0.0332
     57 C         0.334398   2.641173   -3.270281 C.3        1 UNL1     -0.0567
     58 C         -2.700362   -3.71892   -5.904828 C.3        1 UNL1     0.0210
     59 C         -1.39878   2.051544   -5.468662 C.3        1 UNL1     0.0372
     60 C         -1.394409   -1.319569   -4.875356 C.2        1 UNL1     -0.0208
     61 C         -0.440483   -1.636738   -5.751811 C.2        1 UNL1     0.0882
     62 H         2.105202   -3.974568   -3.079854 H        1 UNL1     0.0365
     63 H         2.173174   -5.943451   -3.61754 H        1 UNL1     0.0576
     64 H         3.621566   -7.630347   -1.48369 H        1 UNL1     0.0615
     65 H         2.13272   -8.369141   -4.128568 H        1 UNL1     0.0622
     66 H         -2.755905   0.245334   -4.742896 H        1 UNL1     0.0645
     67 H         -3.100407   0.266745   -2.649797 H        1 UNL1     0.0362
     68 H         -1.856338   2.058281   -2.407583 H        1 UNL1     0.0741
     69 H         0.566486   2.091093   -1.332763 H        1 UNL1     0.0359
     70 H         2.245148   0.802419   -2.054513 H        1 UNL1     0.0600
     71 H         2.173564   -0.584035   -0.387981 H        1 UNL1     0.0348
     72 H         2.317639   -2.230902   -2.176588 H        1 UNL1     0.0602
     73 H         -2.103454   -2.050553   -4.575078 H        1 UNL1     0.0628
     74 H         0.357515   -0.962904   -6.065473 H        1 UNL1     0.1022
     75 H         3.344197   -11.106571   -1.342274 H        1 UNL1     0.0279
     76 H         1.983766   -11.998251   -1.896742 H        1 UNL1     0.0279
     77 H         3.573053   -12.041852   -2.76136 H        1 UNL1     0.0279
     78 H         0.116416   -11.094144   -2.699714 H        1 UNL1     0.1553
     79 H         0.202666   -9.559085   -1.449762 H        1 UNL1     0.1484
     80 H         -1.909252   -6.547306   -0.496619 H        1 UNL1     0.0317
     81 H         -2.424009   -7.729203   -1.691639 H        1 UNL1     0.0317
     82 H         -1.502795   -9.61132   -0.312254 H        1 UNL1     0.0428
     83 H         -2.677704   -8.648393   0.556115 H        1 UNL1     0.0428
     84 H         1.419788   -7.852216   1.380614 H        1 UNL1     0.0428
     85 H         1.095819   -9.116755   0.246987 H        1 UNL1     0.0428
     86 H         1.715155   -6.889077   -0.690418 H        1 UNL1     0.0317
     87 H         0.377465   -6.107964   0.018665 H        1 UNL1     0.0317
     88 H         -0.89795   -10.164526   2.02323 H        1 UNL1     0.0429
     89 H         0.102761   -9.047383   2.954254 H        1 UNL1     0.0429
     90 H         -2.885014   -9.361992   2.824602 H        1 UNL1     0.0308
     91 H         -2.749727   -8.634195   5.189591 H        1 UNL1     0.0233
     92 H         -1.491197   -9.858058   4.883396 H        1 UNL1     0.0233
     93 H         -1.063525   -8.165124   5.008599 H        1 UNL1     0.0233
     94 H         -3.34892   -7.00039   3.32697 H        1 UNL1     0.0233
     95 H         -1.664425   -6.59954   2.958017 H        1 UNL1     0.0233
     96 H         -2.727603   -7.231774   1.679766 H        1 UNL1     0.0233
     97 H         -2.830474   -5.97878   -9.288971 H        1 UNL1     0.0280
     98 H         -1.262156   -6.258043   -9.995781 H        1 UNL1     0.0280
     99 H         -2.398761   -7.623988   -9.790712 H        1 UNL1     0.0280
     100 H         -1.027934   -10.067946   -8.059171 H        1 UNL1     0.2922
     101 H         4.061283   -2.493538   -2.629988 H        1 UNL1     0.0236
     102 H         4.600683   -4.017293   -3.438245 H        1 UNL1     0.0236
     103 H         4.872759   -3.747095   -1.744591 H        1 UNL1     0.0236
     104 H         2.748677   -1.911681   0.320205 H        1 UNL1     0.2098
     105 H         -0.699071   -1.423994   -0.703086 H        1 UNL1     0.0234
     106 H         0.316173   -1.472992   0.765918 H        1 UNL1     0.0234
     107 H         0.0   0.0   0.0 H        1 UNL1     0.0234
     108 H         1.88024   -1.132647   -3.459168 H        1 UNL1     0.2098
     109 H         -2.924833   -2.03223   -2.609359 H        1 UNL1     0.0234
     110 H         -1.165561   -1.999845   -2.267722 H        1 UNL1     0.0234
     111 H         -2.296408   -1.441955   -1.085019 H        1 UNL1     0.0234
     112 H         -0.856649   3.604415   1.554866 H        1 UNL1     0.0342
     113 H         0.30967   3.333778   0.211477 H        1 UNL1     0.0342
     114 H         -1.374222   3.736673   -0.135152 H        1 UNL1     0.0342
     115 H         1.191886   3.301075   -3.079411 H        1 UNL1     0.0234
     116 H         0.431446   2.263304   -4.290009 H        1 UNL1     0.0234
     117 H         -0.499052   3.364362   -3.252951 H        1 UNL1     0.0234
     118 H         -3.040088   -2.674281   -6.015837 H        1 UNL1     0.0309
     119 H         -3.37303   -4.375778   -6.465416 H        1 UNL1     0.0309
     120 H         -2.881381   -3.932168   -4.845648 H        1 UNL1     0.0309
     121 H         -0.628336   2.451726   -6.127167 H        1 UNL1     0.0524
     122 H         -2.257097   1.763854   -6.098395 H        1 UNL1     0.0524
     123 H         -1.719263   2.811427   -4.761582 H        1 UNL1     0.0524
@<TRIPOS>BOND
     1     1     2    1
     2     1    42    1
     3     2     3    2
     4     3     4    1
     5     4     5    2
     6     5     7    1
     7     6    75    1
     8     6    76    1
     9     6    77    1
    10     7     9   am
    11     9    10    1
    12    10    11    2
    13    10    43    1
    14    11    14    1
    15    11    15    1
    16    12    13   ar
    17    12    27   ar
    18    12    43    1
    19    13    14    1
    20    13    30   ar
    21    14    17    2
    22    15    16    1
    23    16    17    1
    24    16    18    1
    25    16    22    1
    26    18    19    1
    27    19    20    1
    28    20    21    1
    29    21    22    1
    30    23    24    1
    31    23    88    1
    32    23    89    1
    33    24    25    1
    34    24    26    1
    35    24    90    1
    36    25    91    1
    37    25    92    1
    38    25    93    1
    39    26    94    1
    40    26    95    1
    41    26    96    1
    42    27    28   ar
    43    28    29   ar
    44    29    30   ar
    45    29    31    1
    46    30    33    1
    47    31    32    1
    48    32    33    1
    49    32    35    1
    50    34    97    1
    51    34    98    1
    52    34    99    1
    53    35    61    1
    54    36    37    1
    55    36    60    1
    56    37    38    1
    57    38    39    1
    58    39    40    1
    59    40    41    1
    60    41    42    1
    61    45   100    1
    62    47   101    1
    63    47   102    1
    64    47   103    1
    65    48   104    1
    66    49   105    1
    67    49   106    1
    68    49   107    1
    69    50   108    1
    70    51    59    1
    71    52   109    1
    72    52   110    1
    73    52   111    1
    74    53    54    1
    75    54    55    2
    76    54    56    1
    77    56   112    1
    78    56   113    1
    79    56   114    1
    80    57   115    1
    81    57   116    1
    82    57   117    1
    83    58   118    1
    84    58   119    1
    85    58   120    1
    86    59   121    1
    87    59   122    1
    88    59   123    1
    89    60    61    2
    90     1    47    1
    91     1    62    1
    92     2    63    1
    93     3    64    1
    94     4    65    1
    95     5     6    1
    96     7     8    2
    97     9    78    1
    98    15    79    1
    99    18    80    1
   100    18    81    1
   101    19    82    1
   102    19    83    1
   103    20    23    1
   104    21    84    1
   105    21    85    1
   106    22    86    1
   107    22    87    1
   108    27    45    1
   109    28    34    1
   110    32    58    1
   111    33    46    2
   112    36    51    1
   113    36    66    1
   114    37    52    1
   115    37    67    1
   116    38    53    1
   117    38    68    1
   118    42    48    1
   119    42    72    1
   120    43    44    2
   121    60    73    1
   122    61    74    1
   123    39    69    1
   124    39    57    1
   125    40    70    1
   126    40    50    1
   127    41    71    1
   128    41    49    1
