@<TRIPOS>MOLECULE
*****
 123 128 0 0 0
SMALL
GASTEIGER

@<TRIPOS>ATOM
     1 C         3.699689   -2.132585   2.20638 C.3        1 UNL1     0.0009
     2 C         4.611734   -3.746053   2.16242 C.2        1 UNL1     -0.0787
     3 C         4.713527   -5.14186   2.533104 C.2        1 UNL1     -0.0649
     4 C         5.872284   -6.269818   2.031756 C.2        1 UNL1     -0.0542
     5 C         6.166873   -7.64872   1.894185 C.2        1 UNL1     0.0115
     6 C         5.685265   -9.079301   2.261355 C.3        1 UNL1     -0.0348
     7 C         7.357181   -8.09477   0.91378 C.2        1 UNL1     0.2441
     8 O         8.463473   -8.425492   1.317843 O.2        1 UNL1     -0.2702
     9 N         6.967581   -8.331156   -0.416064 N.am        1 UNL1     -0.2772
     10 C         7.021633   -7.16635   -1.146562 C.2        1 UNL1     0.1049
     11 C         5.972857   -6.369512   -1.049914 C.2        1 UNL1     0.0801
     12 C         8.502054   -5.218364   -1.667176 C.ar        1 UNL1     0.0753
     13 C         7.384376   -4.383618   -1.346859 C.ar        1 UNL1     0.0305
     14 C         6.045846   -4.937397   -1.155243 C.2        1 UNL1     0.0924
     15 N         4.760015   -6.598649   -0.517901 N.pl3        1 UNL1     -0.3170
     16 C         3.925975   -5.46617   -0.821417 C.3        1 UNL1     0.1275
     17 N         4.889415   -4.312062   -0.953871 N.2        1 UNL1     -0.2557
     18 C         3.343649   -5.693551   -2.21314 C.3        1 UNL1     0.0016
     19 C         2.617201   -7.029119   -2.224113 C.3        1 UNL1     0.0026
     20 N         1.56721   -6.99879   -1.215339 N.3        1 UNL1     -0.3018
     21 C         2.023416   -6.724473   0.148844 C.3        1 UNL1     0.0026
     22 C         2.746165   -5.376363   0.137504 C.3        1 UNL1     0.0016
     23 C         0.629606   -8.0965   -1.344091 C.3        1 UNL1     0.0012
     24 C         -0.239821   -7.917892   -2.598663 C.3        1 UNL1     -0.0339
     25 C         0.328332   -8.702124   -3.792916 C.3        1 UNL1     -0.0615
     26 C         -1.674331   -8.317071   -2.2993 C.3        1 UNL1     -0.0615
     27 C         9.748013   -4.672609   -1.966935 C.ar        1 UNL1     0.1347
     28 C         9.987059   -3.310842   -2.016924 C.ar        1 UNL1     0.0342
     29 C         8.884785   -2.509759   -1.650287 C.ar        1 UNL1     0.1435
     30 C         7.640535   -3.043574   -1.312496 C.ar        1 UNL1     0.0774
     31 O         8.926043   -1.163549   -1.755271 O.3        1 UNL1     -0.4436
     32 C         7.548937   -0.758122   -1.764293 C.3        1 UNL1     0.3143
     33 C         6.799187   -1.886982   -1.086236 C.2        1 UNL1     0.2504
     34 C         11.219041   -2.65171   -2.571779 C.3        1 UNL1     -0.0327
     35 O         7.436807   0.3883   -0.912004 O.2        1 UNL1     -0.4528
     36 C         4.585424   2.45892   -2.32276 C.3        1 UNL1     0.0854
     37 C         3.084384   2.046037   -2.575603 C.3        1 UNL1     0.0236
     38 C         1.995895   2.991698   -1.873703 C.3        1 UNL1     0.1131
     39 C         2.123899   3.326997   -0.333099 C.3        1 UNL1     0.0200
     40 C         2.508805   2.129934   0.762951 C.3        1 UNL1     0.0661
     41 C         1.755757   0.614787   0.884846 C.3        1 UNL1     0.0091
     42 C         2.434058   -1.014342   1.386092 C.3        1 UNL1     0.0661
     43 C         8.268224   -6.681061   -1.757184 C.2        1 UNL1     0.2131
     44 O         8.988028   -7.440678   -2.37976 O.2        1 UNL1     -0.2851
     45 O         10.79457   -5.556122   -2.222986 O.3        1 UNL1     -0.5056
     46 O         5.753938   -1.838427   -0.477178 O.2        1 UNL1     -0.2836
     47 C         3.860304   -1.460035   3.596294 C.3        1 UNL1     -0.0566
     48 O         1.317692   -1.321929   2.312501 O.3        1 UNL1     -0.3909
     49 C         0.922219   0.382901   -0.355693 C.3        1 UNL1     -0.0577
     50 O         3.910242   1.983232   0.873286 O.3        1 UNL1     -0.3910
     51 O         4.791085   3.488121   -1.381547 O.3        1 UNL1     -0.3753
     52 C         2.912535   0.493644   -2.649708 C.3        1 UNL1     -0.0564
     53 O         0.604382   2.800958   -2.402509 O.3        1 UNL1     -0.4608
     54 C         -0.548545   3.160776   -1.755036 C.2        1 UNL1     0.3042
     55 O         -1.406843   2.413496   -1.287345 O.2        1 UNL1     -0.2512
     56 C         -0.700401   4.644705   -1.577248 C.3        1 UNL1     0.0332
     57 C         2.88654   4.72714   -0.205996 C.3        1 UNL1     -0.0567
     58 C         7.120958   -0.696041   -3.249053 C.3        1 UNL1     0.0210
     59 C         5.9674   4.267494   -1.593037 C.3        1 UNL1     0.0372
     60 C         5.489392   1.340237   -1.939942 C.2        1 UNL1     -0.0208
     61 C         6.419698   1.267986   -0.987023 C.2        1 UNL1     0.0882
     62 H         4.471828   -1.700412   1.558507 H        1 UNL1     0.0365
     63 H         5.515915   -3.454209   1.624131 H        1 UNL1     0.0576
     64 H         3.91162   -5.650802   3.072576 H        1 UNL1     0.0615
     65 H         6.656207   -5.65526   1.580905 H        1 UNL1     0.0622
     66 H         4.94238   2.813902   -3.299805 H        1 UNL1     0.0645
     67 H         2.919246   2.275744   -3.642619 H        1 UNL1     0.0362
     68 H         2.208614   3.9366   -2.396612 H        1 UNL1     0.0741
     69 H         1.166566   3.679387   0.027098 H        1 UNL1     0.0359
     70 H         2.208009   2.629079   1.703928 H        1 UNL1     0.0600
     71 H         0.972249   0.847933   1.632318 H        1 UNL1     0.0348
     72 H         3.135884   -0.261496   1.773363 H        1 UNL1     0.0602
     73 H         5.39453   0.556123   -2.649459 H        1 UNL1     0.0628
     74 H         6.542813   2.000537   -0.188618 H        1 UNL1     0.1022
     75 H         4.744217   -9.034317   2.860887 H        1 UNL1     0.0279
     76 H         5.404005   -9.724304   1.431938 H        1 UNL1     0.0279
     77 H         6.363544   -9.590002   2.960514 H        1 UNL1     0.0279
     78 H         6.005001   -8.661433   -0.436918 H        1 UNL1     0.1553
     79 H         4.390552   -7.516049   -0.348175 H        1 UNL1     0.1484
     80 H         2.665457   -4.86672   -2.456396 H        1 UNL1     0.0317
     81 H         4.132205   -5.68613   -2.973256 H        1 UNL1     0.0317
     82 H         3.306566   -7.868961   -2.05278 H        1 UNL1     0.0428
     83 H         2.211351   -7.172092   -3.226058 H        1 UNL1     0.0428
     84 H         1.208366   -6.628031   0.872863 H        1 UNL1     0.0428
     85 H         2.638219   -7.543618   0.546759 H        1 UNL1     0.0428
     86 H         2.947223   -5.146949   1.16752 H        1 UNL1     0.0317
     87 H         2.0539   -4.582627   -0.168842 H        1 UNL1     0.0317
     88 H         1.204301   -9.026289   -1.446617 H        1 UNL1     0.0429
     89 H         0.009754   -8.199122   -0.444076 H        1 UNL1     0.0429
     90 H         -0.273909   -6.854482   -2.863635 H        1 UNL1     0.0308
     91 H         0.413885   -9.768594   -3.563952 H        1 UNL1     0.0233
     92 H         -0.303639   -8.574239   -4.674884 H        1 UNL1     0.0233
     93 H         1.328811   -8.35735   -4.081025 H        1 UNL1     0.0233
     94 H         -2.252195   -8.374061   -3.228096 H        1 UNL1     0.0233
     95 H         -1.696972   -9.303228   -1.827131 H        1 UNL1     0.0233
     96 H         -2.158698   -7.596259   -1.634629 H        1 UNL1     0.0233
     97 H         11.153805   -1.568416   -2.533727 H        1 UNL1     0.0280
     98 H         12.12144   -2.918488   -2.006303 H        1 UNL1     0.0280
     99 H         11.356995   -2.95287   -3.623144 H        1 UNL1     0.0280
     100 H         11.235382   -5.414002   -3.042198 H        1 UNL1     0.2922
     101 H         3.356614   -0.493624   3.597523 H        1 UNL1     0.0236
     102 H         4.898608   -1.380484   3.916578 H        1 UNL1     0.0236
     103 H         3.363218   -2.035719   4.394847 H        1 UNL1     0.0236
     104 H         1.59159   -1.041738   3.207735 H        1 UNL1     0.2098
     105 H         0.710274   1.281978   -0.928887 H        1 UNL1     0.0234
     106 H         1.291675   -0.405088   -1.011821 H        1 UNL1     0.0234
     107 H         0.0   -0.0   0.0 H        1 UNL1     0.0234
     108 H         4.238763   1.674927   0.006804 H        1 UNL1     0.2098
     109 H         3.234377   -0.00512   -1.724849 H        1 UNL1     0.0234
     110 H         1.890867   0.184988   -2.89602 H        1 UNL1     0.0234
     111 H         3.523142   0.056649   -3.451045 H        1 UNL1     0.0234
     112 H         -1.634786   4.862811   -1.051225 H        1 UNL1     0.0342
     113 H         0.151002   5.084451   -1.059967 H        1 UNL1     0.0342
     114 H         -0.759069   5.105331   -2.573012 H        1 UNL1     0.0342
     115 H         2.336048   5.538524   -0.701781 H        1 UNL1     0.0234
     116 H         3.073976   5.038719   0.823487 H        1 UNL1     0.0234
     117 H         3.845871   4.756584   -0.750751 H        1 UNL1     0.0234
     118 H         7.410981   0.257233   -3.724618 H        1 UNL1     0.0309
     119 H         7.512788   -1.526974   -3.84422 H        1 UNL1     0.0309
     120 H         6.032905   -0.719986   -3.374245 H        1 UNL1     0.0309
     121 H         6.824866   3.600994   -1.504233 H        1 UNL1     0.0524
     122 H         5.997455   4.714647   -2.600602 H        1 UNL1     0.0524
     123 H         6.030866   5.060516   -0.853319 H        1 UNL1     0.0524
@<TRIPOS>BOND
     1     1     2    1
     2     1    42    1
     3     2     3    2
     4     3     4    1
     5     4     5    2
     6     5     7    1
     7     6    75    1
     8     6    76    1
     9     6    77    1
    10     7     9   am
    11     9    10    1
    12    10    11    2
    13    10    43    1
    14    11    14    1
    15    11    15    1
    16    12    13   ar
    17    12    27   ar
    18    12    43    1
    19    13    14    1
    20    13    30   ar
    21    14    17    2
    22    15    16    1
    23    16    17    1
    24    16    18    1
    25    16    22    1
    26    18    19    1
    27    19    20    1
    28    20    21    1
    29    21    22    1
    30    23    24    1
    31    23    88    1
    32    23    89    1
    33    24    25    1
    34    24    26    1
    35    24    90    1
    36    25    91    1
    37    25    92    1
    38    25    93    1
    39    26    94    1
    40    26    95    1
    41    26    96    1
    42    27    28   ar
    43    28    29   ar
    44    29    30   ar
    45    29    31    1
    46    30    33    1
    47    31    32    1
    48    32    33    1
    49    32    35    1
    50    34    97    1
    51    34    98    1
    52    34    99    1
    53    35    61    1
    54    36    37    1
    55    36    60    1
    56    37    38    1
    57    38    39    1
    58    39    40    1
    59    40    41    1
    60    41    42    1
    61    45   100    1
    62    47   101    1
    63    47   102    1
    64    47   103    1
    65    48   104    1
    66    49   105    1
    67    49   106    1
    68    49   107    1
    69    50   108    1
    70    51    59    1
    71    52   109    1
    72    52   110    1
    73    52   111    1
    74    53    54    1
    75    54    55    2
    76    54    56    1
    77    56   112    1
    78    56   113    1
    79    56   114    1
    80    57   115    1
    81    57   116    1
    82    57   117    1
    83    58   118    1
    84    58   119    1
    85    58   120    1
    86    59   121    1
    87    59   122    1
    88    59   123    1
    89    60    61    2
    90     1    47    1
    91     1    62    1
    92     2    63    1
    93     3    64    1
    94     4    65    1
    95     5     6    1
    96     7     8    2
    97     9    78    1
    98    15    79    1
    99    18    80    1
   100    18    81    1
   101    19    82    1
   102    19    83    1
   103    20    23    1
   104    21    84    1
   105    21    85    1
   106    22    86    1
   107    22    87    1
   108    27    45    1
   109    28    34    1
   110    32    58    1
   111    33    46    2
   112    36    51    1
   113    36    66    1
   114    37    52    1
   115    37    67    1
   116    38    53    1
   117    38    68    1
   118    42    48    1
   119    42    72    1
   120    43    44    2
   121    60    73    1
   122    61    74    1
   123    39    69    1
   124    39    57    1
   125    40    70    1
   126    40    50    1
   127    41    71    1
   128    41    49    1
