@<TRIPOS>MOLECULE
*****
 123 128 0 0 0
SMALL
GASTEIGER

@<TRIPOS>ATOM
     1 C         1.027585   3.692588   2.366401 C.3        1 UNL1     0.0009
     2 C         0.058075   5.123879   3.036097 C.2        1 UNL1     -0.0787
     3 C         -0.577171   6.410542   2.843723 C.2        1 UNL1     -0.0649
     4 C         -1.527614   7.276811   3.944901 C.2        1 UNL1     -0.0542
     5 C         -2.49873   8.298321   4.088183 C.2        1 UNL1     0.0115
     6 C         -3.242437   9.438948   3.340392 C.3        1 UNL1     -0.0348
     7 C         -3.346793   8.378658   5.448817 C.2        1 UNL1     0.2441
     8 O         -3.110596   9.190208   6.333194 O.2        1 UNL1     -0.2702
     9 N         -4.538128   7.632428   5.445218 N.am        1 UNL1     -0.2772
     10 C         -4.298537   6.343308   5.86246 C.2        1 UNL1     0.1049
     11 C         -3.849527   5.508003   4.943288 C.2        1 UNL1     0.0801
     12 C         -3.183911   5.017344   7.667109 C.ar        1 UNL1     0.0753
     13 C         -2.554848   4.269833   6.621109 C.ar        1 UNL1     0.0305
     14 C         -2.969956   4.406483   5.226812 C.2        1 UNL1     0.0924
     15 N         -3.781379   5.647936   3.608259 N.pl3        1 UNL1     -0.3170
     16 C         -3.374767   4.383867   3.054139 C.3        1 UNL1     0.1275
     17 N         -2.572472   3.730279   4.152716 N.2        1 UNL1     -0.2557
     18 C         -4.633116   3.537364   2.887727 C.3        1 UNL1     0.0016
     19 C         -5.627372   4.30689   2.032816 C.3        1 UNL1     0.0026
     20 N         -5.013317   4.591921   0.74335 N.3        1 UNL1     -0.3018
     21 C         -3.762144   5.350329   0.804616 C.3        1 UNL1     0.0026
     22 C         -2.776559   4.556904   1.664263 C.3        1 UNL1     0.0016
     23 C         -5.967087   5.052672   -0.245929 C.3        1 UNL1     0.0012
     24 C         -6.229939   3.957612   -1.291638 C.3        1 UNL1     -0.0339
     25 C         -5.242798   4.053417   -2.466556 C.3        1 UNL1     -0.0615
     26 C         -6.185944   2.58891   -0.634751 C.3        1 UNL1     -0.0615
     27 C         -2.866928   4.79403   9.004932 C.ar        1 UNL1     0.1347
     28 C         -1.969506   3.826409   9.420134 C.ar        1 UNL1     0.0342
     29 C         -1.326386   3.136398   8.370636 C.ar        1 UNL1     0.1435
     30 C         -1.607213   3.374481   7.024652 C.ar        1 UNL1     0.0774
     31 O         -0.507862   2.089372   8.613047 O.3        1 UNL1     -0.4436
     32 C         -0.442113   1.383801   7.36456 C.3        1 UNL1     0.3143
     33 C         -0.795407   2.412238   6.309233 C.2        1 UNL1     0.2504
     34 C         -1.767485   3.36027   10.835055 C.3        1 UNL1     -0.0327
     35 O         0.927766   1.021317   7.151752 O.2        1 UNL1     -0.4528
     36 C         0.852293   -2.195331   5.137907 C.3        1 UNL1     0.0854
     37 C         0.17981   -2.480048   3.73997 C.3        1 UNL1     0.0236
     38 C         1.167462   -3.069304   2.622355 C.3        1 UNL1     0.1131
     39 C         2.542295   -2.344242   2.328436 C.3        1 UNL1     0.0200
     40 C         2.613046   -0.68163   2.213758 C.3        1 UNL1     0.0661
     41 C         1.594172   0.293628   1.271218 C.3        1 UNL1     0.0091
     42 C         0.98276   1.999691   1.555689 C.3        1 UNL1     0.0661
     43 C         -4.250456   5.976068   7.285546 C.2        1 UNL1     0.2131
     44 O         -5.109051   6.368776   8.054528 O.2        1 UNL1     -0.2851
     45 O         -3.49099   5.595951   9.958299 O.3        1 UNL1     -0.5056
     46 O         -0.463103   2.442392   5.145396 O.2        1 UNL1     -0.2836
     47 C         2.518999   4.086275   2.19126 C.3        1 UNL1     -0.0566
     48 O         1.303304   2.465219   0.184686 O.3        1 UNL1     -0.3909
     49 C         0.408535   -0.530751   0.821598 C.3        1 UNL1     -0.0577
     50 O         2.796439   -0.098724   3.488242 O.3        1 UNL1     -0.3910
     51 O         2.255333   -2.324753   5.18437 O.3        1 UNL1     -0.3753
     52 C         -0.925514   -1.427333   3.400856 C.3        1 UNL1     -0.0564
     53 O         0.454099   -3.654025   1.438489 O.3        1 UNL1     -0.4608
     54 C         -0.181986   -4.867568   1.41319 C.2        1 UNL1     0.3042
     55 O         -1.043088   -5.243041   0.618607 O.2        1 UNL1     -0.2512
     56 C         0.307337   -5.825034   2.462254 C.3        1 UNL1     0.0332
     57 C         3.669939   -3.08045   3.191333 C.3        1 UNL1     -0.0567
     58 C         -1.555706   0.311664   7.408866 C.3        1 UNL1     0.0210
     59 C         2.768177   -2.855765   6.405387 C.3        1 UNL1     0.0372
     60 C         0.523158   -0.872964   5.736386 C.2        1 UNL1     -0.0208
     61 C         1.30958   0.0297   6.324164 C.2        1 UNL1     0.0882
     62 H         0.945704   3.204055   3.34484 H        1 UNL1     0.0365
     63 H         -0.01709   4.84404   4.088955 H        1 UNL1     0.0576
     64 H         -0.630134   6.881334   1.859519 H        1 UNL1     0.0615
     65 H         -1.342095   6.776535   4.899254 H        1 UNL1     0.0622
     66 H         0.417892   -2.947433   5.811468 H        1 UNL1     0.0645
     67 H         -0.477867   -3.345967   3.930247 H        1 UNL1     0.0362
     68 H         1.437144   -4.023634   3.0999 H        1 UNL1     0.0741
     69 H         2.904623   -2.664308   1.360611 H        1 UNL1     0.0359
     70 H         3.593532   -0.566563   1.713291 H        1 UNL1     0.0600
     71 H         2.187669   0.347479   0.337506 H        1 UNL1     0.0348
     72 H         1.865492   1.882371   2.200931 H        1 UNL1     0.0602
     73 H         -0.531418   -0.751795   5.757239 H        1 UNL1     0.0628
     74 H         2.399565   0.008855   6.29703 H        1 UNL1     0.1022
     75 H         -2.515078   10.190335   2.948728 H        1 UNL1     0.0279
     76 H         -3.790947   9.155067   2.44506 H        1 UNL1     0.0279
     77 H         -3.854499   10.059098   4.011582 H        1 UNL1     0.0279
     78 H         -4.908593   7.584089   4.498384 H        1 UNL1     0.1553
     79 H         -4.315339   6.321847   3.090897 H        1 UNL1     0.1484
     80 H         -4.362039   2.581171   2.42407 H        1 UNL1     0.0317
     81 H         -5.076167   3.29945   3.86074 H        1 UNL1     0.0317
     82 H         -5.95845   5.232266   2.52676 H        1 UNL1     0.0428
     83 H         -6.517693   3.686035   1.928326 H        1 UNL1     0.0428
     84 H         -3.280785   5.48183   -0.169453 H        1 UNL1     0.0428
     85 H         -3.923207   6.376349   1.163308 H        1 UNL1     0.0428
     86 H         -1.837505   5.071364   1.57769 H        1 UNL1     0.0317
     87 H         -2.575841   3.582766   1.20181 H        1 UNL1     0.0317
     88 H         -6.9104   5.278488   0.26833 H        1 UNL1     0.0429
     89 H         -5.629913   5.982304   -0.72224 H        1 UNL1     0.0429
     90 H         -7.248594   4.070199   -1.681356 H        1 UNL1     0.0308
     91 H         -5.47141   4.908771   -3.109368 H        1 UNL1     0.0233
     92 H         -4.216546   4.142494   -2.102577 H        1 UNL1     0.0233
     93 H         -5.264737   3.161395   -3.104247 H        1 UNL1     0.0233
     94 H         -5.148773   2.29962   -0.433696 H        1 UNL1     0.0233
     95 H         -6.71964   2.615083   0.319421 H        1 UNL1     0.0233
     96 H         -6.640231   1.825433   -1.272476 H        1 UNL1     0.0233
     97 H         -1.02661   2.569123   10.901557 H        1 UNL1     0.0280
     98 H         -1.406881   4.16539   11.48851 H        1 UNL1     0.0280
     99 H         -2.719644   2.976693   11.236748 H        1 UNL1     0.0280
     100 H         -4.06161   6.254568   9.602998 H        1 UNL1     0.2922
     101 H         2.689399   5.077366   2.611212 H        1 UNL1     0.0236
     102 H         2.863059   4.014363   1.16003 H        1 UNL1     0.0236
     103 H         3.192019   3.422265   2.758999 H        1 UNL1     0.0236
     104 H         1.194928   1.703821   -0.418223 H        1 UNL1     0.2098
     105 H         0.661082   -1.531099   0.479056 H        1 UNL1     0.0234
     106 H         -0.414126   -0.572305   1.53534 H        1 UNL1     0.0234
     107 H         -0.0   0.0   0.0 H        1 UNL1     0.0234
     108 H         3.174482   0.79087   3.348694 H        1 UNL1     0.2098
     109 H         -0.849744   -0.527949   4.027817 H        1 UNL1     0.0234
     110 H         -0.93462   -1.1379   2.3445 H        1 UNL1     0.0234
     111 H         -1.933015   -1.827653   3.575879 H        1 UNL1     0.0234
     112 H         -0.250696   -6.764111   2.39838 H        1 UNL1     0.0342
     113 H         1.379276   -6.001674   2.387498 H        1 UNL1     0.0342
     114 H         0.110828   -5.38294   3.448713 H        1 UNL1     0.0342
     115 H         4.662418   -2.989663   2.728805 H        1 UNL1     0.0234
     116 H         3.751494   -2.717065   4.217662 H        1 UNL1     0.0234
     117 H         3.550857   -4.177038   3.226768 H        1 UNL1     0.0234
     118 H         -2.532601   0.740086   7.693712 H        1 UNL1     0.0309
     119 H         -1.664953   -0.233527   6.465979 H        1 UNL1     0.0309
     120 H         -1.378408   -0.446982   8.179013 H        1 UNL1     0.0309
     121 H         3.841406   -2.667951   6.421561 H        1 UNL1     0.0524
     122 H         2.331843   -2.364693   7.291107 H        1 UNL1     0.0524
     123 H         2.573514   -3.92299   6.462222 H        1 UNL1     0.0524
@<TRIPOS>BOND
     1     1     2    1
     2     1    42    1
     3     2     3    2
     4     3     4    1
     5     4     5    2
     6     5     7    1
     7     6    75    1
     8     6    76    1
     9     6    77    1
    10     7     9   am
    11     9    10    1
    12    10    11    2
    13    10    43    1
    14    11    14    1
    15    11    15    1
    16    12    13   ar
    17    12    27   ar
    18    12    43    1
    19    13    14    1
    20    13    30   ar
    21    14    17    2
    22    15    16    1
    23    16    17    1
    24    16    18    1
    25    16    22    1
    26    18    19    1
    27    19    20    1
    28    20    21    1
    29    21    22    1
    30    23    24    1
    31    23    88    1
    32    23    89    1
    33    24    25    1
    34    24    26    1
    35    24    90    1
    36    25    91    1
    37    25    92    1
    38    25    93    1
    39    26    94    1
    40    26    95    1
    41    26    96    1
    42    27    28   ar
    43    28    29   ar
    44    29    30   ar
    45    29    31    1
    46    30    33    1
    47    31    32    1
    48    32    33    1
    49    32    35    1
    50    34    97    1
    51    34    98    1
    52    34    99    1
    53    35    61    1
    54    36    37    1
    55    36    60    1
    56    37    38    1
    57    38    39    1
    58    39    40    1
    59    40    41    1
    60    41    42    1
    61    45   100    1
    62    47   101    1
    63    47   102    1
    64    47   103    1
    65    48   104    1
    66    49   105    1
    67    49   106    1
    68    49   107    1
    69    50   108    1
    70    51    59    1
    71    52   109    1
    72    52   110    1
    73    52   111    1
    74    53    54    1
    75    54    55    2
    76    54    56    1
    77    56   112    1
    78    56   113    1
    79    56   114    1
    80    57   115    1
    81    57   116    1
    82    57   117    1
    83    58   118    1
    84    58   119    1
    85    58   120    1
    86    59   121    1
    87    59   122    1
    88    59   123    1
    89    60    61    2
    90     1    47    1
    91     1    62    1
    92     2    63    1
    93     3    64    1
    94     4    65    1
    95     5     6    1
    96     7     8    2
    97     9    78    1
    98    15    79    1
    99    18    80    1
   100    18    81    1
   101    19    82    1
   102    19    83    1
   103    20    23    1
   104    21    84    1
   105    21    85    1
   106    22    86    1
   107    22    87    1
   108    27    45    1
   109    28    34    1
   110    32    58    1
   111    33    46    2
   112    36    51    1
   113    36    66    1
   114    37    52    1
   115    37    67    1
   116    38    53    1
   117    38    68    1
   118    42    48    1
   119    42    72    1
   120    43    44    2
   121    60    73    1
   122    61    74    1
   123    39    69    1
   124    39    57    1
   125    40    70    1
   126    40    50    1
   127    41    71    1
   128    41    49    1
