@<TRIPOS>MOLECULE
*****
 123 128 0 0 0
SMALL
GASTEIGER

@<TRIPOS>ATOM
     1 C         4.045219   -0.134822   0.814456 C.3        1 UNL1     0.0009
     2 C         4.884451   0.034869   2.45882 C.2        1 UNL1     -0.0787
     3 C         5.543523   0.854147   3.454035 C.2        1 UNL1     -0.0649
     4 C         6.053666   0.400575   5.003352 C.2        1 UNL1     -0.0542
     5 C         6.415881   0.869657   6.290146 C.2        1 UNL1     0.0115
     6 C         6.748025   2.142824   7.116009 C.3        1 UNL1     -0.0348
     7 C         6.414138   -0.160376   7.521414 C.2        1 UNL1     0.2441
     8 O         7.436381   -0.653503   7.977891 O.2        1 UNL1     -0.2702
     9 N         5.190741   -0.256542   8.207126 N.am        1 UNL1     -0.2772
     10 C         4.386034   -1.20734   7.62253 C.2        1 UNL1     0.1049
     11 C         3.69065   -0.814421   6.570732 C.2        1 UNL1     0.0801
     12 C         4.386396   -3.565987   6.789393 C.ar        1 UNL1     0.0753
     13 C         3.820729   -3.055314   5.577848 C.ar        1 UNL1     0.0305
     14 C         3.333276   -1.68127   5.480671 C.2        1 UNL1     0.0924
     15 N         3.472938   0.422529   6.092105 N.pl3        1 UNL1     -0.3170
     16 C         2.508636   0.319001   5.029252 C.3        1 UNL1     0.1275
     17 N         2.697428   -1.074859   4.482227 N.2        1 UNL1     -0.2557
     18 C         1.124606   0.338223   5.670962 C.3        1 UNL1     0.0016
     19 C         0.996902   1.596961   6.514086 C.3        1 UNL1     0.0026
     20 N         1.19249   2.756931   5.655456 N.3        1 UNL1     -0.3018
     21 C         2.472628   2.796126   4.945471 C.3        1 UNL1     0.0026
     22 C         2.577784   1.524758   4.101396 C.3        1 UNL1     0.0016
     23 C         0.798968   3.999921   6.288512 C.3        1 UNL1     0.0012
     24 C         -0.033728   3.721913   7.549894 C.3        1 UNL1     -0.0339
     25 C         0.633305   4.308836   8.804743 C.3        1 UNL1     -0.0615
     26 C         -1.446038   4.250369   7.368524 C.3        1 UNL1     -0.0615
     27 C         4.737267   -4.908325   6.912426 C.ar        1 UNL1     0.1347
     28 C         4.533687   -5.840096   5.910224 C.ar        1 UNL1     0.0342
     29 C         4.020903   -5.304876   4.709493 C.ar        1 UNL1     0.1435
     30 C         3.698513   -3.95552   4.559415 C.ar        1 UNL1     0.0774
     31 O         3.664675   -6.101574   3.678289 O.3        1 UNL1     -0.4436
     32 C         2.785021   -5.293069   2.882424 C.3        1 UNL1     0.3143
     33 C         3.144583   -3.861401   3.224848 C.2        1 UNL1     0.2504
     34 C         4.649478   -7.331841   6.056473 C.3        1 UNL1     -0.0327
     35 O         3.144182   -5.496651   1.510269 O.2        1 UNL1     -0.4528
     36 C         -0.051548   -5.024898   -0.482931 C.3        1 UNL1     0.0854
     37 C         -1.014685   -3.777283   -0.54079 C.3        1 UNL1     0.0236
     38 C         -1.28578   -3.20042   -2.012347 C.3        1 UNL1     0.1131
     39 C         -0.065924   -2.880181   -2.96716 C.3        1 UNL1     0.0200
     40 C         1.285233   -2.09888   -2.378618 C.3        1 UNL1     0.0661
     41 C         1.287248   -0.672048   -1.461145 C.3        1 UNL1     0.0091
     42 C         2.429057   -0.107883   -0.140769 C.3        1 UNL1     0.0661
     43 C         4.504228   -2.637968   7.941416 C.2        1 UNL1     0.2131
     44 O         4.587526   -3.008467   9.098364 O.2        1 UNL1     -0.2851
     45 O         5.324155   -5.314626   8.109055 O.3        1 UNL1     -0.5056
     46 O         3.022085   -2.869598   2.541346 O.2        1 UNL1     -0.2836
     47 C         5.089927   -0.079009   -0.332476 C.3        1 UNL1     -0.0566
     48 O         2.596045   1.251879   -0.708467 O.3        1 UNL1     -0.3909
     49 C         -0.118853   -0.403885   -0.972816 C.3        1 UNL1     -0.0577
     50 O         2.202032   -3.025724   -1.832574 O.3        1 UNL1     -0.3910
     51 O         0.584641   -5.368679   -1.693101 O.3        1 UNL1     -0.3753
     52 C         -0.829245   -2.841164   0.697855 C.3        1 UNL1     -0.0564
     53 O         -2.454247   -2.261293   -2.083421 O.3        1 UNL1     -0.4608
     54 C         -3.41391   -2.111508   -1.116704 C.2        1 UNL1     0.3042
     55 O         -3.741469   -1.072938   -0.544065 O.2        1 UNL1     -0.2512
     56 C         -4.153212   -3.380667   -0.801456 C.3        1 UNL1     0.0332
     57 C         0.160174   -4.15581   -3.905149 C.3        1 UNL1     -0.0567
     58 C         1.351293   -5.58129   3.385298 C.3        1 UNL1     0.0210
     59 C         0.094926   -6.557923   -2.310956 C.3        1 UNL1     0.0372
     60 C         1.012332   -4.950412   0.555226 C.2        1 UNL1     -0.0208
     61 C         2.312518   -5.238537   0.482797 C.2        1 UNL1     0.0882
     62 H         3.875752   -1.196264   1.032016 H        1 UNL1     0.0365
     63 H         4.90783   -1.00734   2.783972 H        1 UNL1     0.0576
     64 H         5.627061   1.937236   3.33981 H        1 UNL1     0.0615
     65 H         6.006868   -0.69163   4.98379 H        1 UNL1     0.0622
     66 H         -0.701008   -5.861586   -0.189331 H        1 UNL1     0.0645
     67 H         -2.00479   -4.190685   -0.281269 H        1 UNL1     0.0362
     68 H         -1.787304   -4.071086   -2.461721 H        1 UNL1     0.0741
     69 H         -0.402557   -2.214204   -3.750461 H        1 UNL1     0.0359
     70 H         1.749935   -1.778277   -3.33063 H        1 UNL1     0.0600
     71 H         1.382648   0.078083   -2.270564 H        1 UNL1     0.0348
     72 H         2.969308   -0.88857   -0.69572 H        1 UNL1     0.0602
     73 H         0.568795   -4.731828   1.494771 H        1 UNL1     0.0628
     74 H         2.853922   -5.416061   -0.447044 H        1 UNL1     0.1022
     75 H         7.474226   2.788572   6.56585 H        1 UNL1     0.0279
     76 H         5.923731   2.826573   7.305999 H        1 UNL1     0.0279
     77 H         7.309623   1.919182   8.034863 H        1 UNL1     0.0279
     78 H         4.6995   0.633525   8.156724 H        1 UNL1     0.1553
     79 H         3.599367   1.258884   6.631975 H        1 UNL1     0.1484
     80 H         0.364013   0.306067   4.881512 H        1 UNL1     0.0317
     81 H         0.969074   -0.550168   6.29243 H        1 UNL1     0.0317
     82 H         1.709717   1.599912   7.35182 H        1 UNL1     0.0428
     83 H         0.003543   1.589621   6.963791 H        1 UNL1     0.0428
     84 H         2.561611   3.634413   4.247496 H        1 UNL1     0.0428
     85 H         3.318041   2.931466   5.634148 H        1 UNL1     0.0428
     86 H         3.457877   1.649637   3.498214 H        1 UNL1     0.0317
     87 H         1.766476   1.496526   3.363778 H        1 UNL1     0.0317
     88 H         1.71027   4.536865   6.582646 H        1 UNL1     0.0429
     89 H         0.254895   4.64847   5.58984 H        1 UNL1     0.0429
     90 H         -0.134158   2.638131   7.682343 H        1 UNL1     0.0308
     91 H         1.215372   5.203511   8.564207 H        1 UNL1     0.0233
     92 H         -0.116193   4.560576   9.558725 H        1 UNL1     0.0233
     93 H         1.321288   3.600525   9.282039 H        1 UNL1     0.0233
     94 H         -1.916082   4.414552   8.344197 H        1 UNL1     0.0233
     95 H         -1.421802   5.207806   6.840614 H        1 UNL1     0.0233
     96 H         -2.064423   3.549667   6.800558 H        1 UNL1     0.0233
     97 H         5.408879   -7.747776   5.401081 H        1 UNL1     0.0280
     98 H         4.936525   -7.626835   7.074234 H        1 UNL1     0.0280
     99 H         3.684027   -7.802928   5.809335 H        1 UNL1     0.0280
     100 H         4.940273   -6.083752   8.492072 H        1 UNL1     0.2922
     101 H         5.255061   -1.080801   -0.728456 H        1 UNL1     0.0236
     102 H         6.021762   0.404048   -0.040375 H        1 UNL1     0.0236
     103 H         4.728023   0.506385   -1.194179 H        1 UNL1     0.0236
     104 H         2.207824   1.885989   -0.074307 H        1 UNL1     0.2098
     105 H         -0.670772   0.319176   -1.568114 H        1 UNL1     0.0234
     106 H         -0.721859   -1.296794   -0.808423 H        1 UNL1     0.0234
     107 H         0.0   0.0   0.0 H        1 UNL1     0.0234
     108 H         2.71614   -3.397108   -2.575229 H        1 UNL1     0.2098
     109 H         -1.049895   -3.354658   1.644084 H        1 UNL1     0.0234
     110 H         0.166909   -2.388737   0.750112 H        1 UNL1     0.0234
     111 H         -1.510726   -1.980849   0.660601 H        1 UNL1     0.0234
     112 H         -3.44607   -4.21093   -0.712244 H        1 UNL1     0.0342
     113 H         -4.761971   -3.287723   0.096663 H        1 UNL1     0.0342
     114 H         -4.82821   -3.601789   -1.639697 H        1 UNL1     0.0342
     115 H         1.069913   -4.707813   -3.631553 H        1 UNL1     0.0234
     116 H         -0.669476   -4.865503   -3.896972 H        1 UNL1     0.0234
     117 H         0.376163   -3.896486   -4.955883 H        1 UNL1     0.0234
     118 H         0.591972   -5.384149   2.608399 H        1 UNL1     0.0309
     119 H         1.224305   -6.602155   3.759345 H        1 UNL1     0.0309
     120 H         1.052113   -4.918677   4.204775 H        1 UNL1     0.0309
     121 H         0.898942   -6.967034   -2.922137 H        1 UNL1     0.0524
     122 H         -0.185684   -7.327747   -1.572941 H        1 UNL1     0.0524
     123 H         -0.768553   -6.331642   -2.930063 H        1 UNL1     0.0524
@<TRIPOS>BOND
     1     1     2    1
     2     1    42    1
     3     2     3    2
     4     3     4    1
     5     4     5    2
     6     5     7    1
     7     6    75    1
     8     6    76    1
     9     6    77    1
    10     7     9   am
    11     9    10    1
    12    10    11    2
    13    10    43    1
    14    11    14    1
    15    11    15    1
    16    12    13   ar
    17    12    27   ar
    18    12    43    1
    19    13    14    1
    20    13    30   ar
    21    14    17    2
    22    15    16    1
    23    16    17    1
    24    16    18    1
    25    16    22    1
    26    18    19    1
    27    19    20    1
    28    20    21    1
    29    21    22    1
    30    23    24    1
    31    23    88    1
    32    23    89    1
    33    24    25    1
    34    24    26    1
    35    24    90    1
    36    25    91    1
    37    25    92    1
    38    25    93    1
    39    26    94    1
    40    26    95    1
    41    26    96    1
    42    27    28   ar
    43    28    29   ar
    44    29    30   ar
    45    29    31    1
    46    30    33    1
    47    31    32    1
    48    32    33    1
    49    32    35    1
    50    34    97    1
    51    34    98    1
    52    34    99    1
    53    35    61    1
    54    36    37    1
    55    36    60    1
    56    37    38    1
    57    38    39    1
    58    39    40    1
    59    40    41    1
    60    41    42    1
    61    45   100    1
    62    47   101    1
    63    47   102    1
    64    47   103    1
    65    48   104    1
    66    49   105    1
    67    49   106    1
    68    49   107    1
    69    50   108    1
    70    51    59    1
    71    52   109    1
    72    52   110    1
    73    52   111    1
    74    53    54    1
    75    54    55    2
    76    54    56    1
    77    56   112    1
    78    56   113    1
    79    56   114    1
    80    57   115    1
    81    57   116    1
    82    57   117    1
    83    58   118    1
    84    58   119    1
    85    58   120    1
    86    59   121    1
    87    59   122    1
    88    59   123    1
    89    60    61    2
    90     1    47    1
    91     1    62    1
    92     2    63    1
    93     3    64    1
    94     4    65    1
    95     5     6    1
    96     7     8    2
    97     9    78    1
    98    15    79    1
    99    18    80    1
   100    18    81    1
   101    19    82    1
   102    19    83    1
   103    20    23    1
   104    21    84    1
   105    21    85    1
   106    22    86    1
   107    22    87    1
   108    27    45    1
   109    28    34    1
   110    32    58    1
   111    33    46    2
   112    36    51    1
   113    36    66    1
   114    37    52    1
   115    37    67    1
   116    38    53    1
   117    38    68    1
   118    42    48    1
   119    42    72    1
   120    43    44    2
   121    60    73    1
   122    61    74    1
   123    39    69    1
   124    39    57    1
   125    40    70    1
   126    40    50    1
   127    41    71    1
   128    41    49    1
