@<TRIPOS>MOLECULE
*****
 123 128 0 0 0
SMALL
GASTEIGER

@<TRIPOS>ATOM
     1 C         5.167386   1.747452   0.493729 C.3        1 UNL1     0.0009
     2 C         6.604572   2.5535   -0.355871 C.2        1 UNL1     -0.0787
     3 C         7.886662   2.455227   -1.021177 C.2        1 UNL1     -0.0649
     4 C         8.764679   3.690395   -1.776031 C.2        1 UNL1     -0.0542
     5 C         9.78511   3.983111   -2.714177 C.2        1 UNL1     0.0115
     6 C         10.913462   3.357686   -3.579618 C.3        1 UNL1     -0.0348
     7 C         9.881026   5.466551   -3.320143 C.2        1 UNL1     0.2441
     8 O         10.704976   6.287868   -2.941897 O.2        1 UNL1     -0.2702
     9 N         9.13127   5.6741   -4.491015 N.am        1 UNL1     -0.2772
     10 C         7.848538   6.060988   -4.177582 C.2        1 UNL1     0.1049
     11 C         7.002411   5.089682   -3.886279 C.2        1 UNL1     0.0801
     12 C         6.550039   7.667476   -2.766757 C.ar        1 UNL1     0.0753
     13 C         5.790547   6.539594   -2.319921 C.ar        1 UNL1     0.0305
     14 C         5.907388   5.234084   -2.96571 C.2        1 UNL1     0.0924
     15 N         7.124763   3.760729   -4.045778 N.pl3        1 UNL1     -0.3170
     16 C         5.854646   3.161762   -3.732255 C.3        1 UNL1     0.1275
     17 N         5.218132   4.116819   -2.752234 N.2        1 UNL1     -0.2557
     18 C         5.00226   3.221472   -4.996208 C.3        1 UNL1     0.0016
     19 C         5.757374   2.537579   -6.124784 C.3        1 UNL1     0.0026
     20 N         6.027042   1.15928   -5.739298 N.3        1 UNL1     -0.3018
     21 C         6.789921   0.998277   -4.499757 C.3        1 UNL1     0.0026
     22 C         6.010947   1.688607   -3.378801 C.3        1 UNL1     0.0016
     23 C         6.471741   0.340011   -6.849111 C.3        1 UNL1     0.0012
     24 C         5.316583   0.091152   -7.831676 C.3        1 UNL1     -0.0339
     25 C         4.444833   -1.094416   -7.386099 C.3        1 UNL1     -0.0615
     26 C         4.494584   1.357095   -8.000455 C.3        1 UNL1     -0.0615
     27 C         6.345497   8.935037   -2.226783 C.ar        1 UNL1     0.1347
     28 C         5.386166   9.204494   -1.26703 C.ar        1 UNL1     0.0342
     29 C         4.684164   8.07006   -0.80723 C.ar        1 UNL1     0.1435
     30 C         4.903472   6.78815   -1.313028 C.ar        1 UNL1     0.0774
     31 O         3.6429   8.183593   0.045932 O.3        1 UNL1     -0.4436
     32 C         2.92097   6.950997   -0.096898 C.3        1 UNL1     0.3143
     33 C         3.934211   5.957823   -0.629026 C.2        1 UNL1     0.2504
     34 C         4.939507   10.570559   -0.826051 C.3        1 UNL1     -0.0327
     35 O         2.559766   6.513943   1.219069 O.2        1 UNL1     -0.4528
     36 C         -0.683614   4.582685   0.820556 C.3        1 UNL1     0.0854
     37 C         -0.988916   3.322475   -0.077323 C.3        1 UNL1     0.0236
     38 C         -1.590054   2.061316   0.709985 C.3        1 UNL1     0.1131
     39 C         -0.864878   1.52977   2.011464 C.3        1 UNL1     0.0200
     40 C         0.796264   1.383804   2.05316 C.3        1 UNL1     0.0661
     41 C         1.75585   0.615127   0.884425 C.3        1 UNL1     0.0091
     42 C         3.463721   0.977453   0.321132 C.3        1 UNL1     0.0661
     43 C         7.500418   7.459913   -3.887451 C.2        1 UNL1     0.2131
     44 O         7.90077   8.35813   -4.605547 O.2        1 UNL1     -0.2851
     45 O         7.158177   9.970096   -2.68465 O.3        1 UNL1     -0.5056
     46 O         3.94986   4.754242   -0.498641 O.2        1 UNL1     -0.2836
     47 C         5.563146   1.317405   1.931927 C.3        1 UNL1     -0.0566
     48 O         3.91191   -0.433789   0.402609 O.3        1 UNL1     -0.3909
     49 C         0.922033   0.383149   -0.355909 C.3        1 UNL1     -0.0577
     50 O         1.396627   2.60139   2.446571 O.3        1 UNL1     -0.3910
     51 O         -0.808227   4.392585   2.211874 O.3        1 UNL1     -0.3753
     52 C         0.055896   3.162124   -1.22954 C.3        1 UNL1     -0.0564
     53 O         -2.192604   1.022774   -0.190399 O.3        1 UNL1     -0.4608
     54 C         -2.414958   -0.287373   0.144267 C.2        1 UNL1     0.3042
     55 O         -1.842642   -1.280143   -0.30373 O.2        1 UNL1     -0.2512
     56 C         -3.444611   -0.465998   1.223444 C.3        1 UNL1     0.0332
     57 C         -1.586173   2.198531   3.272681 C.3        1 UNL1     -0.0567
     58 C         1.846207   7.196706   -1.181352 C.3        1 UNL1     0.0210
     59 C         -1.152308   5.56507   2.948592 C.3        1 UNL1     0.0372
     60 C         0.645616   5.211515   0.590598 C.2        1 UNL1     -0.0208
     61 C         1.558362   5.64624   1.460456 C.2        1 UNL1     0.0882
     62 H         4.691679   2.731714   0.581153 H        1 UNL1     0.0365
     63 H         6.33855   3.607331   -0.250317 H        1 UNL1     0.0576
     64 H         8.344152   1.488336   -1.242381 H        1 UNL1     0.0615
     65 H         8.277706   4.6058   -1.429083 H        1 UNL1     0.0622
     66 H         -1.427973   5.329497   0.510321 H        1 UNL1     0.0645
     67 H         -1.854179   3.632252   -0.68881 H        1 UNL1     0.0362
     68 H         -2.537135   2.498314   1.061542 H        1 UNL1     0.0741
     69 H         -1.196718   0.518692   2.206429 H        1 UNL1     0.0359
     70 H         0.907578   0.723163   2.934195 H        1 UNL1     0.0600
     71 H         1.799035   -0.406186   1.311054 H        1 UNL1     0.0348
     72 H         3.35763   1.465371   1.300926 H        1 UNL1     0.0602
     73 H         0.763911   5.409066   -0.445852 H        1 UNL1     0.0628
     74 H         1.540403   5.435239   2.53022 H        1 UNL1     0.1022
     75 H         10.957616   2.252348   -3.426939 H        1 UNL1     0.0279
     76 H         10.800213   3.440848   -4.658195 H        1 UNL1     0.0279
     77 H         11.918502   3.662036   -3.252562 H        1 UNL1     0.0279
     78 H         9.069229   4.804334   -5.016119 H        1 UNL1     0.1553
     79 H         7.790134   3.332768   -4.663081 H        1 UNL1     0.1484
     80 H         4.040791   2.730716   -4.802552 H        1 UNL1     0.0317
     81 H         4.776001   4.258367   -5.266958 H        1 UNL1     0.0317
     82 H         6.688252   3.068727   -6.372289 H        1 UNL1     0.0428
     83 H         5.132534   2.593161   -7.016712 H        1 UNL1     0.0428
     84 H         6.909877   -0.044802   -4.190878 H        1 UNL1     0.0428
     85 H         7.82014   1.366086   -4.603113 H        1 UNL1     0.0428
     86 H         6.527003   1.437827   -2.470625 H        1 UNL1     0.0317
     87 H         5.031341   1.211175   -3.254191 H        1 UNL1     0.0317
     88 H         7.268116   0.881776   -7.375962 H        1 UNL1     0.0429
     89 H         6.903983   -0.60598   -6.498338 H        1 UNL1     0.0429
     90 H         5.729625   -0.132102   -8.822518 H        1 UNL1     0.0308
     91 H         4.038337   -0.934323   -6.382987 H        1 UNL1     0.0233
     92 H         3.620909   -1.252577   -8.085915 H        1 UNL1     0.0233
     93 H         5.005271   -2.036655   -7.355596 H        1 UNL1     0.0233
     94 H         3.569235   1.136967   -8.543694 H        1 UNL1     0.0233
     95 H         4.222679   1.759448   -7.020587 H        1 UNL1     0.0233
     96 H         5.047308   2.120853   -8.554655 H        1 UNL1     0.0233
     97 H         4.145908   10.520745   -0.086491 H        1 UNL1     0.0280
     98 H         5.752243   11.140253   -0.356834 H        1 UNL1     0.0280
     99 H         4.56626   11.135457   -1.69592 H        1 UNL1     0.0280
     100 H         6.691436   10.720662   -3.007801 H        1 UNL1     0.2922
     101 H         4.700057   0.883822   2.436643 H        1 UNL1     0.0236
     102 H         6.013933   2.122457   2.511293 H        1 UNL1     0.0236
     103 H         6.319197   0.514548   1.93083 H        1 UNL1     0.0236
     104 H         4.331121   -0.560154   1.276259 H        1 UNL1     0.2098
     105 H         0.709721   1.282225   -0.928969 H        1 UNL1     0.0234
     106 H         1.291498   -0.404696   -1.012204 H        1 UNL1     0.0234
     107 H         0.0   -0.0   0.0 H        1 UNL1     0.0234
     108 H         1.198472   3.259906   1.753131 H        1 UNL1     0.2098
     109 H         1.080576   3.048278   -0.849038 H        1 UNL1     0.0234
     110 H         -0.176524   2.335292   -1.9093 H        1 UNL1     0.0234
     111 H         0.077523   4.045134   -1.882052 H        1 UNL1     0.0234
     112 H         -3.569985   -1.530049   1.445752 H        1 UNL1     0.0342
     113 H         -3.196129   0.094536   2.12339 H        1 UNL1     0.0342
     114 H         -4.404433   -0.084945   0.848337 H        1 UNL1     0.0342
     115 H         -2.650418   1.93035   3.324158 H        1 UNL1     0.0234
     116 H         -1.135014   1.93758   4.23206 H        1 UNL1     0.0234
     117 H         -1.64635   3.298859   3.212698 H        1 UNL1     0.0234
     118 H         0.945116   7.683706   -0.769197 H        1 UNL1     0.0309
     119 H         2.216003   7.78486   -2.027241 H        1 UNL1     0.0309
     120 H         1.457549   6.264973   -1.606705 H        1 UNL1     0.0309
     121 H         -0.347855   6.287471   2.81314 H        1 UNL1     0.0524
     122 H         -2.082233   6.03126   2.582607 H        1 UNL1     0.0524
     123 H         -1.268402   5.326479   4.002011 H        1 UNL1     0.0524
@<TRIPOS>BOND
     1     1     2    1
     2     1    42    1
     3     2     3    2
     4     3     4    1
     5     4     5    2
     6     5     7    1
     7     6    75    1
     8     6    76    1
     9     6    77    1
    10     7     9   am
    11     9    10    1
    12    10    11    2
    13    10    43    1
    14    11    14    1
    15    11    15    1
    16    12    13   ar
    17    12    27   ar
    18    12    43    1
    19    13    14    1
    20    13    30   ar
    21    14    17    2
    22    15    16    1
    23    16    17    1
    24    16    18    1
    25    16    22    1
    26    18    19    1
    27    19    20    1
    28    20    21    1
    29    21    22    1
    30    23    24    1
    31    23    88    1
    32    23    89    1
    33    24    25    1
    34    24    26    1
    35    24    90    1
    36    25    91    1
    37    25    92    1
    38    25    93    1
    39    26    94    1
    40    26    95    1
    41    26    96    1
    42    27    28   ar
    43    28    29   ar
    44    29    30   ar
    45    29    31    1
    46    30    33    1
    47    31    32    1
    48    32    33    1
    49    32    35    1
    50    34    97    1
    51    34    98    1
    52    34    99    1
    53    35    61    1
    54    36    37    1
    55    36    60    1
    56    37    38    1
    57    38    39    1
    58    39    40    1
    59    40    41    1
    60    41    42    1
    61    45   100    1
    62    47   101    1
    63    47   102    1
    64    47   103    1
    65    48   104    1
    66    49   105    1
    67    49   106    1
    68    49   107    1
    69    50   108    1
    70    51    59    1
    71    52   109    1
    72    52   110    1
    73    52   111    1
    74    53    54    1
    75    54    55    2
    76    54    56    1
    77    56   112    1
    78    56   113    1
    79    56   114    1
    80    57   115    1
    81    57   116    1
    82    57   117    1
    83    58   118    1
    84    58   119    1
    85    58   120    1
    86    59   121    1
    87    59   122    1
    88    59   123    1
    89    60    61    2
    90     1    47    1
    91     1    62    1
    92     2    63    1
    93     3    64    1
    94     4    65    1
    95     5     6    1
    96     7     8    2
    97     9    78    1
    98    15    79    1
    99    18    80    1
   100    18    81    1
   101    19    82    1
   102    19    83    1
   103    20    23    1
   104    21    84    1
   105    21    85    1
   106    22    86    1
   107    22    87    1
   108    27    45    1
   109    28    34    1
   110    32    58    1
   111    33    46    2
   112    36    51    1
   113    36    66    1
   114    37    52    1
   115    37    67    1
   116    38    53    1
   117    38    68    1
   118    42    48    1
   119    42    72    1
   120    43    44    2
   121    60    73    1
   122    61    74    1
   123    39    69    1
   124    39    57    1
   125    40    70    1
   126    40    50    1
   127    41    71    1
   128    41    49    1
