@<TRIPOS>MOLECULE
*****
 123 128 0 0 0
SMALL
GASTEIGER

@<TRIPOS>ATOM
     1 C         4.751157   2.38691   1.314823 C.3        1 UNL1     0.0009
     2 C         6.156912   3.440585   0.722659 C.2        1 UNL1     -0.0787
     3 C         7.516407   3.5661   0.240927 C.2        1 UNL1     -0.0649
     4 C         8.299462   4.961206   -0.313023 C.2        1 UNL1     -0.0542
     5 C         9.382135   5.45799   -1.079902 C.2        1 UNL1     0.0115
     6 C         10.693238   5.056777   -1.810217 C.3        1 UNL1     -0.0348
     7 C         9.342742   6.98171   -1.583603 C.2        1 UNL1     0.2441
     8 O         9.982492   7.876351   -1.048008 O.2        1 UNL1     -0.2702
     9 N         8.732441   7.172597   -2.8355 N.am        1 UNL1     -0.2772
     10 C         7.3773   7.358326   -2.685766 C.2        1 UNL1     0.1049
     11 C         6.648838   6.262705   -2.57096 C.2        1 UNL1     0.0801
     12 C         5.685927   8.66534   -1.386418 C.ar        1 UNL1     0.0753
     13 C         5.044402   7.415148   -1.114252 C.ar        1 UNL1     0.0305
     14 C         5.432393   6.189047   -1.807931 C.2        1 UNL1     0.0924
     15 N         6.981288   4.978022   -2.784491 N.pl3        1 UNL1     -0.3170
     16 C         5.780465   4.19138   -2.687171 C.3        1 UNL1     0.1275
     17 N         4.889086   4.976183   -1.755908 N.2        1 UNL1     -0.2557
     18 C         5.103115   4.229256   -4.053723 C.3        1 UNL1     0.0016
     19 C         6.091407   3.739438   -5.10012 C.3        1 UNL1     0.0026
     20 N         6.503352   2.385368   -4.756865 N.3        1 UNL1     -0.3018
     21 C         7.110736   2.237137   -3.432674 C.3        1 UNL1     0.0026
     22 C         6.099126   2.730659   -2.39683 C.3        1 UNL1     0.0016
     23 C         7.204233   1.718476   -5.836061 C.3        1 UNL1     0.0012
     24 C         6.236304   1.385749   -6.982431 C.3        1 UNL1     -0.0339
     25 C         6.261122   2.470261   -8.072052 C.3        1 UNL1     -0.0615
     26 C         6.554992   0.014139   -7.551557 C.3        1 UNL1     -0.0615
     27 C         5.231389   9.84997   -0.811819 C.ar        1 UNL1     0.1347
     28 C         4.124827   9.915284   0.016013 C.ar        1 UNL1     0.0342
     29 C         3.538911   8.665418   0.30876 C.ar        1 UNL1     0.1435
     30 C         4.005477   7.466062   -0.230761 C.ar        1 UNL1     0.0774
     31 O         2.388549   8.573532   1.011065 O.3        1 UNL1     -0.4436
     32 C         1.876934   7.268801   0.699937 C.3        1 UNL1     0.3143
     33 C         3.084015   6.463904   0.262549 C.2        1 UNL1     0.2504
     34 C         3.431754   11.171906   0.463953 C.3        1 UNL1     -0.0327
     35 O         1.411574   6.690334   1.925526 O.2        1 UNL1     -0.4528
     36 C         -1.438402   4.373797   0.966682 C.3        1 UNL1     0.0854
     37 C         -1.437585   3.154193   -0.033362 C.3        1 UNL1     0.0236
     38 C         -1.949655   1.768383   0.590384 C.3        1 UNL1     0.1131
     39 C         -1.334081   1.244341   1.95006 C.3        1 UNL1     0.0200
     40 C         0.310502   1.321348   2.218114 C.3        1 UNL1     0.0661
     41 C         1.516841   0.778359   1.156266 C.3        1 UNL1     0.0091
     42 C         3.214081   1.40888   0.860933 C.3        1 UNL1     0.0661
     43 C         6.796085   8.671939   -2.371185 C.2        1 UNL1     0.2131
     44 O         7.154352   9.666884   -2.974896 O.2        1 UNL1     -0.2851
     45 O         5.9399   11.016452   -1.092479 O.3        1 UNL1     -0.5056
     46 O         3.255426   5.267129   0.327362 O.2        1 UNL1     -0.2836
     47 C         5.010974   1.9085   2.768646 C.3        1 UNL1     -0.0566
     48 O         3.846055   0.068975   0.927128 O.3        1 UNL1     -0.3909
     49 C         0.896579   0.528786   -0.200378 C.3        1 UNL1     -0.0577
     50 O         0.671914   2.576199   2.758905 O.3        1 UNL1     -0.3910
     51 O         -1.717265   4.065679   2.313802 O.3        1 UNL1     -0.3753
     52 C         -0.237446   3.222537   -1.033335 C.3        1 UNL1     -0.0564
     53 O         -2.271937   0.727842   -0.44196 O.3        1 UNL1     -0.4608
     54 C         -2.346026   -0.62152   -0.214661 C.2        1 UNL1     0.3042
     55 O         -1.582771   -1.492073   -0.631093 O.2        1 UNL1     -0.2512
     56 C         -3.473013   -1.01691   0.696536 C.3        1 UNL1     0.0332
     57 C         -2.304573   1.713913   3.13151 C.3        1 UNL1     -0.0567
     58 C         0.930974   7.447075   -0.510396 C.3        1 UNL1     0.0210
     59 C         -2.32817   5.120237   3.055805 C.3        1 UNL1     0.0372
     60 C         -0.194959   5.191715   0.961962 C.2        1 UNL1     -0.0208
     61 C         0.522516   5.67982   1.974744 C.2        1 UNL1     0.0882
     62 H         4.131339   3.288663   1.388171 H        1 UNL1     0.0365
     63 H         5.730316   4.438043   0.847406 H        1 UNL1     0.0576
     64 H         8.133553   2.688999   0.033729 H        1 UNL1     0.0615
     65 H         7.644183   5.774105   0.011458 H        1 UNL1     0.0622
     66 H         -2.234897   5.03423   0.595914 H        1 UNL1     0.0645
     67 H         -2.249873   3.388889   -0.743055 H        1 UNL1     0.0362
     68 H         -2.987882   2.046116   0.828021 H        1 UNL1     0.0741
     69 H         -1.539713   0.186039   2.040171 H        1 UNL1     0.0359
     70 H         0.398263   0.618121   3.068308 H        1 UNL1     0.0600
     71 H         1.649826   -0.256638   1.527822 H        1 UNL1     0.0348
     72 H         2.910183   1.803777   1.841248 H        1 UNL1     0.0602
     73 H         0.029696   5.479953   -0.034882 H        1 UNL1     0.0628
     74 H         0.39379   5.389365   3.017962 H        1 UNL1     0.1022
     75 H         10.875509   3.959262   -1.713929 H        1 UNL1     0.0279
     76 H         10.712863   5.203857   -2.887738 H        1 UNL1     0.0279
     77 H         11.591796   5.468893   -1.328081 H        1 UNL1     0.0279
     78 H         8.866295   6.343899   -3.411191 H        1 UNL1     0.1553
     79 H         7.777091   4.690938   -3.324132 H        1 UNL1     0.1484
     80 H         4.205256   3.600125   -4.025281 H        1 UNL1     0.0317
     81 H         4.767727   5.243334   -4.296233 H        1 UNL1     0.0317
     82 H         6.960573   4.408352   -5.183889 H        1 UNL1     0.0428
     83 H         5.588599   3.776301   -6.067009 H        1 UNL1     0.0428
     84 H         7.337721   1.199757   -3.167848 H        1 UNL1     0.0428
     85 H         8.081779   2.747359   -3.368911 H        1 UNL1     0.0428
     86 H         6.521209   2.485034   -1.440011 H        1 UNL1     0.0317
     87 H         5.190694   2.117378   -2.438465 H        1 UNL1     0.0317
     88 H         7.974817   2.401688   -6.216477 H        1 UNL1     0.0429
     89 H         7.720516   0.817786   -5.479714 H        1 UNL1     0.0429
     90 H         5.217543   1.315075   -6.583251 H        1 UNL1     0.0308
     91 H         7.26784   2.601139   -8.480086 H        1 UNL1     0.0233
     92 H         5.575074   2.21786   -8.883988 H        1 UNL1     0.0233
     93 H         5.941169   3.448994   -7.694498 H        1 UNL1     0.0233
     94 H         6.000108   -0.146885   -8.482154 H        1 UNL1     0.0233
     95 H         7.622332   -0.057308   -7.778809 H        1 UNL1     0.0233
     96 H         6.289676   -0.780874   -6.84904 H        1 UNL1     0.0233
     97 H         2.562824   10.96052   1.079995 H        1 UNL1     0.0280
     98 H         4.084707   11.809653   1.074025 H        1 UNL1     0.0280
     99 H         3.099425   11.744332   -0.417513 H        1 UNL1     0.0280
     100 H         5.416889   11.718937   -1.436858 H        1 UNL1     0.2922
     101 H         4.16089   1.3247   3.121053 H        1 UNL1     0.0236
     102 H         5.259014   2.721904   3.449699 H        1 UNL1     0.0236
     103 H         5.869148   1.21864   2.830482 H        1 UNL1     0.0236
     104 H         4.161073   -0.063657   1.842629 H        1 UNL1     0.2098
     105 H         0.635476   1.431065   -0.747671 H        1 UNL1     0.0234
     106 H         1.458731   -0.151604   -0.839894 H        1 UNL1     0.0234
     107 H         0.0   -0.0   0.0 H        1 UNL1     0.0234
     108 H         0.471845   3.251946   2.082809 H        1 UNL1     0.2098
     109 H         0.733637   3.213901   -0.518909 H        1 UNL1     0.0234
     110 H         -0.259734   2.428374   -1.787359 H        1 UNL1     0.0234
     111 H         -0.253607   4.149288   -1.622247 H        1 UNL1     0.0234
     112 H         -3.473437   -2.101858   0.838781 H        1 UNL1     0.0342
     113 H         -3.428127   -0.497529   1.652608 H        1 UNL1     0.0342
     114 H         -4.419385   -0.740454   0.211648 H        1 UNL1     0.0342
     115 H         -3.316469   1.301389   3.017144 H        1 UNL1     0.0234
     116 H         -1.951443   1.445665   4.129203 H        1 UNL1     0.0234
     117 H         -2.514097   2.79742   3.124303 H        1 UNL1     0.0234
     118 H         -0.077366   7.775916   -0.203608 H        1 UNL1     0.0309
     119 H         1.320825   8.141039   -1.261816 H        1 UNL1     0.0309
     120 H         0.740244   6.505625   -1.037085 H        1 UNL1     0.0309
     121 H         -1.631562   5.957978   3.072692 H        1 UNL1     0.0524
     122 H         -3.261973   5.474355   2.588205 H        1 UNL1     0.0524
     123 H         -2.543604   4.791416   4.068503 H        1 UNL1     0.0524
@<TRIPOS>BOND
     1     1     2    1
     2     1    42    1
     3     2     3    2
     4     3     4    1
     5     4     5    2
     6     5     7    1
     7     6    75    1
     8     6    76    1
     9     6    77    1
    10     7     9   am
    11     9    10    1
    12    10    11    2
    13    10    43    1
    14    11    14    1
    15    11    15    1
    16    12    13   ar
    17    12    27   ar
    18    12    43    1
    19    13    14    1
    20    13    30   ar
    21    14    17    2
    22    15    16    1
    23    16    17    1
    24    16    18    1
    25    16    22    1
    26    18    19    1
    27    19    20    1
    28    20    21    1
    29    21    22    1
    30    23    24    1
    31    23    88    1
    32    23    89    1
    33    24    25    1
    34    24    26    1
    35    24    90    1
    36    25    91    1
    37    25    92    1
    38    25    93    1
    39    26    94    1
    40    26    95    1
    41    26    96    1
    42    27    28   ar
    43    28    29   ar
    44    29    30   ar
    45    29    31    1
    46    30    33    1
    47    31    32    1
    48    32    33    1
    49    32    35    1
    50    34    97    1
    51    34    98    1
    52    34    99    1
    53    35    61    1
    54    36    37    1
    55    36    60    1
    56    37    38    1
    57    38    39    1
    58    39    40    1
    59    40    41    1
    60    41    42    1
    61    45   100    1
    62    47   101    1
    63    47   102    1
    64    47   103    1
    65    48   104    1
    66    49   105    1
    67    49   106    1
    68    49   107    1
    69    50   108    1
    70    51    59    1
    71    52   109    1
    72    52   110    1
    73    52   111    1
    74    53    54    1
    75    54    55    2
    76    54    56    1
    77    56   112    1
    78    56   113    1
    79    56   114    1
    80    57   115    1
    81    57   116    1
    82    57   117    1
    83    58   118    1
    84    58   119    1
    85    58   120    1
    86    59   121    1
    87    59   122    1
    88    59   123    1
    89    60    61    2
    90     1    47    1
    91     1    62    1
    92     2    63    1
    93     3    64    1
    94     4    65    1
    95     5     6    1
    96     7     8    2
    97     9    78    1
    98    15    79    1
    99    18    80    1
   100    18    81    1
   101    19    82    1
   102    19    83    1
   103    20    23    1
   104    21    84    1
   105    21    85    1
   106    22    86    1
   107    22    87    1
   108    27    45    1
   109    28    34    1
   110    32    58    1
   111    33    46    2
   112    36    51    1
   113    36    66    1
   114    37    52    1
   115    37    67    1
   116    38    53    1
   117    38    68    1
   118    42    48    1
   119    42    72    1
   120    43    44    2
   121    60    73    1
   122    61    74    1
   123    39    69    1
   124    39    57    1
   125    40    70    1
   126    40    50    1
   127    41    71    1
   128    41    49    1
