@<TRIPOS>MOLECULE
*****
 123 128 0 0 0
SMALL
GASTEIGER

@<TRIPOS>ATOM
     1 C         5.16776   1.745983   0.494965 C.3        1 UNL1     0.0009
     2 C         6.605441   2.551462   -0.354337 C.2        1 UNL1     -0.0787
     3 C         7.88769   2.452693   -1.019266 C.2        1 UNL1     -0.0649
     4 C         8.766311   3.68748   -1.77404 C.2        1 UNL1     -0.0542
     5 C         9.7871   3.979746   -2.711935 C.2        1 UNL1     0.0115
     6 C         10.915501   3.353847   -3.57697 C.3        1 UNL1     -0.0348
     7 C         9.883656   5.463072   -3.318078 C.2        1 UNL1     0.2441
     8 O         10.707757   6.284182   -2.939711 O.2        1 UNL1     -0.2702
     9 N         9.134298   5.670696   -4.489192 N.am        1 UNL1     -0.2772
     10 C         7.851599   6.058031   -4.176177 C.2        1 UNL1     0.1049
     11 C         7.005084   5.087032   -3.884981 C.2        1 UNL1     0.0801
     12 C         6.553205   7.665122   -2.765942 C.ar        1 UNL1     0.0753
     13 C         5.793231   6.537541   -2.319167 C.ar        1 UNL1     0.0305
     14 C         5.909844   5.231906   -2.964744 C.2        1 UNL1     0.0924
     15 N         7.127062   3.758018   -4.044262 N.pl3        1 UNL1     -0.3170
     16 C         5.856668   3.159495   -3.731019 C.3        1 UNL1     0.1275
     17 N         5.220176   4.114887   -2.75131 N.2        1 UNL1     -0.2557
     18 C         5.00466   3.219299   -4.995221 C.3        1 UNL1     0.0016
     19 C         5.759879   2.535013   -6.123489 C.3        1 UNL1     0.0026
     20 N         6.029003   1.156682   -5.737737 N.3        1 UNL1     -0.3018
     21 C         6.791478   0.99561   -4.497956 C.3        1 UNL1     0.0026
     22 C         6.012404   1.686339   -3.377318 C.3        1 UNL1     0.0016
     23 C         6.47376   0.337121   -6.84731 C.3        1 UNL1     0.0012
     24 C         5.318802   0.08849   -7.83017 C.3        1 UNL1     -0.0339
     25 C         5.345662   1.09189   -8.99487 C.3        1 UNL1     -0.0615
     26 C         5.357711   -1.346138   -8.32727 C.3        1 UNL1     -0.0615
     27 C         6.34891   8.932822   -2.226201 C.ar        1 UNL1     0.1347
     28 C         5.38939   9.202713   -1.266758 C.ar        1 UNL1     0.0342
     29 C         4.6869   8.068564   -0.807001 C.ar        1 UNL1     0.1435
     30 C         4.905948   6.786515   -1.312561 C.ar        1 UNL1     0.0774
     31 O         3.64543   8.182542   0.045849 O.3        1 UNL1     -0.4436
     32 C         2.923153   6.950155   -0.097017 C.3        1 UNL1     0.3143
     33 C         3.936232   5.956588   -0.628721 C.2        1 UNL1     0.2504
     34 C         4.943037   10.56898   -0.826094 C.3        1 UNL1     -0.0327
     35 O         2.561437   6.513396   1.218907 O.2        1 UNL1     -0.4528
     36 C         -0.682438   4.583104   0.819738 C.3        1 UNL1     0.0854
     37 C         -0.987882   3.322867   -0.078054 C.3        1 UNL1     0.0236
     38 C         -1.589641   2.062005   0.709256 C.3        1 UNL1     0.1131
     39 C         -0.865003   1.530411   2.011015 C.3        1 UNL1     0.0200
     40 C         0.796081   1.383927   2.053202 C.3        1 UNL1     0.0661
     41 C         1.755757   0.614787   0.884846 C.3        1 UNL1     0.0091
     42 C         3.463902   0.976497   0.321989 C.3        1 UNL1     0.0661
     43 C         7.503838   7.457105   -3.886338 C.2        1 UNL1     0.2131
     44 O         7.904677   8.355098   -4.604443 O.2        1 UNL1     -0.2851
     45 O         7.162045   9.967562   -2.683979 O.3        1 UNL1     -0.5056
     46 O         3.951464   4.75302   -0.498165 O.2        1 UNL1     -0.2836
     47 C         5.562976   1.316009   1.933335 C.3        1 UNL1     -0.0566
     48 O         3.911623   -0.434875   0.403787 O.3        1 UNL1     -0.3909
     49 C         0.922219   0.382901   -0.355693 C.3        1 UNL1     -0.0577
     50 O         1.396716   2.601378   2.446617 O.3        1 UNL1     -0.3910
     51 O         -0.807507   4.393235   2.211046 O.3        1 UNL1     -0.3753
     52 C         0.057207   3.162028   -1.229952 C.3        1 UNL1     -0.0564
     53 O         -2.192262   1.02353   -0.191157 O.3        1 UNL1     -0.4608
     54 C         -2.415515   -0.286398   0.143769 C.2        1 UNL1     0.3042
     55 O         -1.843622   -1.279623   -0.30376 O.2        1 UNL1     -0.2512
     56 C         -3.445668   -0.464132   1.222615 C.3        1 UNL1     0.0332
     57 C         -1.586446   2.199573   3.271934 C.3        1 UNL1     -0.0567
     58 C         1.848775   7.196053   -1.18181 C.3        1 UNL1     0.0210
     59 C         -1.151429   5.56593   2.947505 C.3        1 UNL1     0.0372
     60 C         0.647055   5.211483   0.590072 C.2        1 UNL1     -0.0208
     61 C         1.559691   5.646041   1.460129 C.2        1 UNL1     0.0882
     62 H         4.692339   2.730407   0.582118 H        1 UNL1     0.0365
     63 H         6.339721   3.605391   -0.249004 H        1 UNL1     0.0576
     64 H         8.344938   1.485627   -1.240206 H        1 UNL1     0.0615
     65 H         8.279527   4.603087   -1.427356 H        1 UNL1     0.0622
     66 H         -1.426474   5.330108   0.509188 H        1 UNL1     0.0645
     67 H         -1.852874   3.632833   -0.68983 H        1 UNL1     0.0362
     68 H         -2.536685   2.499351   1.060483 H        1 UNL1     0.0741
     69 H         -1.197217   0.519464   2.206024 H        1 UNL1     0.0359
     70 H         0.906936   0.723372   2.93436 H        1 UNL1     0.0600
     71 H         1.798498   -0.406481   1.311628 H        1 UNL1     0.0348
     72 H         3.357686   1.464583   1.301686 H        1 UNL1     0.0602
     73 H         0.765707   5.408855   -0.446372 H        1 UNL1     0.0628
     74 H         1.541361   5.435193   2.529916 H        1 UNL1     0.1022
     75 H         10.959264   2.248515   -3.424126 H        1 UNL1     0.0279
     76 H         10.802585   3.436895   -4.65559 H        1 UNL1     0.0279
     77 H         11.920545   3.657925   -3.24967 H        1 UNL1     0.0279
     78 H         9.072133   4.800878   -5.014194 H        1 UNL1     0.1553
     79 H         7.792474   3.329763   -4.661318 H        1 UNL1     0.1484
     80 H         4.042981   2.728873   -4.801771 H        1 UNL1     0.0317
     81 H         4.778805   4.256229   -5.266178 H        1 UNL1     0.0317
     82 H         6.690995   3.065834   -6.370802 H        1 UNL1     0.0428
     83 H         5.135311   2.590669   -7.015603 H        1 UNL1     0.0428
     84 H         6.911018   -0.047465   -4.1889 H        1 UNL1     0.0428
     85 H         7.821843   1.36308   -4.60107 H        1 UNL1     0.0428
     86 H         6.528122   1.435522   -2.46896 H        1 UNL1     0.0317
     87 H         5.032612   1.209233   -3.25292 H        1 UNL1     0.0317
     88 H         7.270455   0.878562   -7.37401 H        1 UNL1     0.0429
     89 H         6.905603   -0.608959   -6.496285 H        1 UNL1     0.0429
     90 H         4.365672   0.195642   -7.298876 H        1 UNL1     0.0308
     91 H         6.294892   1.046543   -9.537096 H        1 UNL1     0.0233
     92 H         4.525705   0.898375   -9.690449 H        1 UNL1     0.0233
     93 H         5.221684   2.127773   -8.656623 H        1 UNL1     0.0233
     94 H         4.661877   -1.475176   -9.163332 H        1 UNL1     0.0233
     95 H         6.362166   -1.590916   -8.683803 H        1 UNL1     0.0233
     96 H         5.082454   -2.04996   -7.536805 H        1 UNL1     0.0233
     97 H         4.149211   10.519518   -0.086752 H        1 UNL1     0.0280
     98 H         5.755818   11.138482   -0.356724 H        1 UNL1     0.0280
     99 H         4.570215   11.133876   -1.696146 H        1 UNL1     0.0280
     100 H         6.695633   10.718231   -3.007366 H        1 UNL1     0.2922
     101 H         4.699607   0.882767   2.437865 H        1 UNL1     0.0236
     102 H         6.013852   2.120999   2.512718 H        1 UNL1     0.0236
     103 H         6.318775   0.512914   1.932563 H        1 UNL1     0.0236
     104 H         4.330546   -0.561252   1.277574 H        1 UNL1     0.2098
     105 H         0.710274   1.281978   -0.928887 H        1 UNL1     0.0234
     106 H         1.291675   -0.405088   -1.011821 H        1 UNL1     0.0234
     107 H         0.0   -0.0   0.0 H        1 UNL1     0.0234
     108 H         1.198965   3.259861   1.75303 H        1 UNL1     0.2098
     109 H         1.081742   3.047911   -0.849144 H        1 UNL1     0.0234
     110 H         -0.17528   2.335176   -1.909664 H        1 UNL1     0.0234
     111 H         0.079297   4.044942   -1.882579 H        1 UNL1     0.0234
     112 H         -3.569492   -1.527856   1.447347 H        1 UNL1     0.0342
     113 H         -3.198749   0.098927   2.121414 H        1 UNL1     0.0342
     114 H         -4.405828   -0.085515   0.845909 H        1 UNL1     0.0342
     115 H         -2.65079   1.931734   3.323146 H        1 UNL1     0.0234
     116 H         -1.135642   1.938611   4.231478 H        1 UNL1     0.0234
     117 H         -1.646259   3.299911   3.211782 H        1 UNL1     0.0234
     118 H         0.94772   7.683393   -0.769979 H        1 UNL1     0.0309
     119 H         2.218996   7.783973   -2.027675 H        1 UNL1     0.0309
     120 H         1.459944   6.264384   -1.607146 H        1 UNL1     0.0309
     121 H         -0.346709   6.288059   2.812182 H        1 UNL1     0.0524
     122 H         -2.081102   6.032363   2.581192 H        1 UNL1     0.0524
     123 H         -1.267897   5.32752   4.000924 H        1 UNL1     0.0524
@<TRIPOS>BOND
     1     1     2    1
     2     1    42    1
     3     2     3    2
     4     3     4    1
     5     4     5    2
     6     5     7    1
     7     6    75    1
     8     6    76    1
     9     6    77    1
    10     7     9   am
    11     9    10    1
    12    10    11    2
    13    10    43    1
    14    11    14    1
    15    11    15    1
    16    12    13   ar
    17    12    27   ar
    18    12    43    1
    19    13    14    1
    20    13    30   ar
    21    14    17    2
    22    15    16    1
    23    16    17    1
    24    16    18    1
    25    16    22    1
    26    18    19    1
    27    19    20    1
    28    20    21    1
    29    21    22    1
    30    23    24    1
    31    23    88    1
    32    23    89    1
    33    24    25    1
    34    24    26    1
    35    24    90    1
    36    25    91    1
    37    25    92    1
    38    25    93    1
    39    26    94    1
    40    26    95    1
    41    26    96    1
    42    27    28   ar
    43    28    29   ar
    44    29    30   ar
    45    29    31    1
    46    30    33    1
    47    31    32    1
    48    32    33    1
    49    32    35    1
    50    34    97    1
    51    34    98    1
    52    34    99    1
    53    35    61    1
    54    36    37    1
    55    36    60    1
    56    37    38    1
    57    38    39    1
    58    39    40    1
    59    40    41    1
    60    41    42    1
    61    45   100    1
    62    47   101    1
    63    47   102    1
    64    47   103    1
    65    48   104    1
    66    49   105    1
    67    49   106    1
    68    49   107    1
    69    50   108    1
    70    51    59    1
    71    52   109    1
    72    52   110    1
    73    52   111    1
    74    53    54    1
    75    54    55    2
    76    54    56    1
    77    56   112    1
    78    56   113    1
    79    56   114    1
    80    57   115    1
    81    57   116    1
    82    57   117    1
    83    58   118    1
    84    58   119    1
    85    58   120    1
    86    59   121    1
    87    59   122    1
    88    59   123    1
    89    60    61    2
    90     1    47    1
    91     1    62    1
    92     2    63    1
    93     3    64    1
    94     4    65    1
    95     5     6    1
    96     7     8    2
    97     9    78    1
    98    15    79    1
    99    18    80    1
   100    18    81    1
   101    19    82    1
   102    19    83    1
   103    20    23    1
   104    21    84    1
   105    21    85    1
   106    22    86    1
   107    22    87    1
   108    27    45    1
   109    28    34    1
   110    32    58    1
   111    33    46    2
   112    36    51    1
   113    36    66    1
   114    37    52    1
   115    37    67    1
   116    38    53    1
   117    38    68    1
   118    42    48    1
   119    42    72    1
   120    43    44    2
   121    60    73    1
   122    61    74    1
   123    39    69    1
   124    39    57    1
   125    40    70    1
   126    40    50    1
   127    41    71    1
   128    41    49    1
