@<TRIPOS>MOLECULE
*****
 123 128 0 0 0
SMALL
GASTEIGER

@<TRIPOS>ATOM
     1 C         0.542283   4.019301   -1.233754 C.3        1 UNL1     0.0009
     2 C         -0.701787   5.133136   -2.039172 C.2        1 UNL1     -0.0787
     3 C         -1.208978   5.805951   -3.21651 C.2        1 UNL1     -0.0649
     4 C         -2.631399   6.711961   -3.365581 C.2        1 UNL1     -0.0542
     5 C         -3.585988   7.233523   -4.273221 C.2        1 UNL1     0.0115
     6 C         -3.893038   7.465728   -5.778254 C.3        1 UNL1     -0.0348
     7 C         -5.016174   7.700483   -3.713305 C.2        1 UNL1     0.2441
     8 O         -5.308611   8.87434   -3.53146 O.2        1 UNL1     -0.2702
     9 N         -5.997849   6.694471   -3.693174 N.am        1 UNL1     -0.2772
     10 C         -5.944956   5.995541   -2.509105 C.2        1 UNL1     0.1049
     11 C         -5.046937   5.029398   -2.443141 C.2        1 UNL1     0.0801
     12 C         -5.855415   6.300666   -0.027933 C.ar        1 UNL1     0.0753
     13 C         -4.742255   5.400992   -0.036188 C.ar        1 UNL1     0.0305
     14 C         -4.386516   4.634801   -1.228434 C.2        1 UNL1     0.0924
     15 N         -4.308211   4.468799   -3.416044 N.pl3        1 UNL1     -0.3170
     16 C         -3.613574   3.344226   -2.847653 C.3        1 UNL1     0.1275
     17 N         -3.46058   3.693361   -1.387372 N.2        1 UNL1     -0.2557
     18 C         -4.563939   2.151876   -2.900676 C.3        1 UNL1     0.0016
     19 C         -5.012298   1.950938   -4.33949 C.3        1 UNL1     0.0026
     20 N         -3.836786   1.721274   -5.168015 N.3        1 UNL1     -0.3018
     21 C         -2.834166   2.78803   -5.134055 C.3        1 UNL1     0.0026
     22 C         -2.394506   2.969777   -3.680245 C.3        1 UNL1     0.0016
     23 C         -4.166338   1.225176   -6.48935 C.3        1 UNL1     0.0012
     24 C         -4.686712   -0.218569   -6.40831 C.3        1 UNL1     -0.0339
     25 C         -6.205975   -0.256485   -6.174941 C.3        1 UNL1     -0.0615
     26 C         -4.294071   -0.984671   -7.65959 C.3        1 UNL1     -0.0615
     27 C         -6.261871   6.935242   1.143488 C.ar        1 UNL1     0.1347
     28 C         -5.660448   6.719397   2.370578 C.ar        1 UNL1     0.0342
     29 C         -4.536246   5.86757   2.329083 C.ar        1 UNL1     0.1435
     30 C         -4.095359   5.25311   1.15636 C.ar        1 UNL1     0.0774
     31 O         -3.909562   5.472172   3.458656 O.3        1 UNL1     -0.4436
     32 C         -3.176392   4.299084   3.07499 C.3        1 UNL1     0.3143
     33 C         -2.985512   4.423558   1.576896 C.2        1 UNL1     0.2504
     34 C         -6.193206   7.164479   3.704059 C.3        1 UNL1     -0.0327
     35 O         -1.876675   4.395318   3.670579 O.2        1 UNL1     -0.4528
     36 C         -0.748535   0.824258   4.289382 C.3        1 UNL1     0.0854
     37 C         -0.590775   -0.362784   3.262949 C.3        1 UNL1     0.0236
     38 C         0.85851   -1.048951   3.240738 C.3        1 UNL1     0.1131
     39 C         2.151424   -0.148533   3.099711 C.3        1 UNL1     0.0200
     40 C         2.190306   1.108244   2.00361 C.3        1 UNL1     0.0661
     41 C         1.755993   1.012772   0.36658 C.3        1 UNL1     0.0091
     42 C         1.003395   2.267501   -0.740061 C.3        1 UNL1     0.0661
     43 C         -6.618486   6.466795   -1.28983 C.2        1 UNL1     0.2131
     44 O         -7.768306   6.865212   -1.333599 O.2        1 UNL1     -0.2851
     45 O         -7.32571   7.830829   1.056258 O.3        1 UNL1     -0.5056
     46 O         -2.103464   3.9608   0.888638 O.2        1 UNL1     -0.2836
     47 C         1.889936   4.765644   -1.041955 C.3        1 UNL1     -0.0566
     48 O         1.960878   2.031025   -1.8475 O.3        1 UNL1     -0.3909
     49 C         1.012572   -0.283608   0.133735 C.3        1 UNL1     -0.0577
     50 O         1.662967   2.288384   2.575368 O.3        1 UNL1     -0.3910
     51 O         0.434797   1.247995   4.927821 O.3        1 UNL1     -0.3753
     52 C         -1.413452   -0.115435   1.956439 C.3        1 UNL1     -0.0564
     53 O         0.885651   -2.372328   2.533446 O.3        1 UNL1     -0.4608
     54 C         1.908719   -2.832331   1.746262 C.2        1 UNL1     0.3042
     55 O         1.863373   -3.74136   0.918343 O.2        1 UNL1     -0.2512
     56 C         3.189905   -2.066753   1.917043 C.3        1 UNL1     0.0332
     57 C         2.708232   0.129972   4.572998 C.3        1 UNL1     -0.0567
     58 C         -4.10036   3.09258   3.361628 C.3        1 UNL1     0.0210
     59 C         0.53287   0.891794   6.305996 C.3        1 UNL1     0.0372
     60 C         -1.402516   2.044765   3.743641 C.2        1 UNL1     -0.0208
     61 C         -1.075728   3.331416   3.872028 C.2        1 UNL1     0.0882
     62 H         -0.007727   4.119042   -0.290223 H        1 UNL1     0.0365
     63 H         -1.294486   5.435997   -1.173462 H        1 UNL1     0.0576
     64 H         -0.770562   5.641375   -4.20333 H        1 UNL1     0.0615
     65 H         -2.939553   6.885382   -2.330956 H        1 UNL1     0.0622
     66 H         -1.430567   0.435279   5.058521 H        1 UNL1     0.0645
     67 H         -1.209637   -1.170805   3.690351 H        1 UNL1     0.0362
     68 H         0.889867   -1.445841   4.266904 H        1 UNL1     0.0741
     69 H         2.975278   -0.77073   2.776376 H        1 UNL1     0.0359
     70 H         3.281598   1.287092   1.9572 H        1 UNL1     0.0600
     71 H         2.742011   0.781069   -0.081794 H        1 UNL1     0.0348
     72 H         1.432557   2.826245   0.104297 H        1 UNL1     0.0602
     73 H         -2.321822   1.773798   3.286802 H        1 UNL1     0.0628
     74 H         -0.12775   3.689649   4.274825 H        1 UNL1     0.1022
     75 H         -3.009388   7.91298   -6.294165 H        1 UNL1     0.0279
     76 H         -4.0889   6.57834   -6.375959 H        1 UNL1     0.0279
     77 H         -4.655284   8.241528   -5.942007 H        1 UNL1     0.0279
     78 H         -5.825242   6.032996   -4.447319 H        1 UNL1     0.1553
     79 H         -4.531676   4.533038   -4.392195 H        1 UNL1     0.1484
     80 H         -4.046826   1.265075   -2.514741 H        1 UNL1     0.0317
     81 H         -5.432473   2.314684   -2.253534 H        1 UNL1     0.0317
     82 H         -5.594863   2.808154   -4.707882 H        1 UNL1     0.0428
     83 H         -5.690467   1.097169   -4.354193 H        1 UNL1     0.0428
     84 H         -1.92713   2.555691   -5.700726 H        1 UNL1     0.0428
     85 H         -3.206469   3.713739   -5.594239 H        1 UNL1     0.0428
     86 H         -1.571111   3.659035   -3.710768 H        1 UNL1     0.0317
     87 H         -1.937368   2.044588   -3.308567 H        1 UNL1     0.0317
     88 H         -4.960109   1.86   -6.904345 H        1 UNL1     0.0429
     89 H         -3.30736   1.298945   -7.168679 H        1 UNL1     0.0429
     90 H         -4.192531   -0.732259   -5.575171 H        1 UNL1     0.0308
     91 H         -6.469763   -0.968919   -5.387568 H        1 UNL1     0.0233
     92 H         -6.579834   0.733378   -5.902896 H        1 UNL1     0.0233
     93 H         -6.759151   -0.556006   -7.073338 H        1 UNL1     0.0233
     94 H         -4.972548   -1.830845   -7.812869 H        1 UNL1     0.0233
     95 H         -4.3653   -0.33265   -8.534665 H        1 UNL1     0.0233
     96 H         -3.272791   -1.369171   -7.588072 H        1 UNL1     0.0233
     97 H         -6.35171   6.328719   4.37905 H        1 UNL1     0.0280
     98 H         -5.500763   7.841398   4.221321 H        1 UNL1     0.0280
     99 H         -7.156202   7.681918   3.562671 H        1 UNL1     0.0280
     100 H         -7.248828   8.463879   0.364189 H        1 UNL1     0.2922
     101 H         2.01026   5.044136   0.004764 H        1 UNL1     0.0236
     102 H         2.005505   5.619804   -1.708317 H        1 UNL1     0.0236
     103 H         2.756164   4.119192   -1.260911 H        1 UNL1     0.0236
     104 H         1.479515   1.565547   -2.559252 H        1 UNL1     0.2098
     105 H         1.325693   -0.827718   -0.753796 H        1 UNL1     0.0234
     106 H         0.980855   -0.951307   0.994606 H        1 UNL1     0.0234
     107 H         -0.0   0.0   0.0 H        1 UNL1     0.0234
     108 H         1.741703   2.995251   1.906108 H        1 UNL1     0.2098
     109 H         -2.490483   -0.022879   2.154302 H        1 UNL1     0.0234
     110 H         -1.06887   0.75601   1.389349 H        1 UNL1     0.0234
     111 H         -1.311671   -0.949999   1.249976 H        1 UNL1     0.0234
     112 H         3.782106   -2.12266   0.99861 H        1 UNL1     0.0342
     113 H         3.013139   -1.031688   2.205552 H        1 UNL1     0.0342
     114 H         3.769086   -2.542042   2.720668 H        1 UNL1     0.0342
     115 H         3.797581   0.273106   4.577606 H        1 UNL1     0.0234
     116 H         2.260828   0.998826   5.059795 H        1 UNL1     0.0234
     117 H         2.603795   -0.732831   5.253149 H        1 UNL1     0.0234
     118 H         -3.735693   2.482643   4.206614 H        1 UNL1     0.0309
     119 H         -5.138875   3.38218   3.550891 H        1 UNL1     0.0309
     120 H         -4.131019   2.379767   2.530326 H        1 UNL1     0.0309
     121 H         -0.122671   0.037589   6.473202 H        1 UNL1     0.0524
     122 H         1.554403   0.586418   6.587515 H        1 UNL1     0.0524
     123 H         0.228969   1.725759   6.932287 H        1 UNL1     0.0524
@<TRIPOS>BOND
     1     1     2    1
     2     1    42    1
     3     2     3    2
     4     3     4    1
     5     4     5    2
     6     5     7    1
     7     6    75    1
     8     6    76    1
     9     6    77    1
    10     7     9   am
    11     9    10    1
    12    10    11    2
    13    10    43    1
    14    11    14    1
    15    11    15    1
    16    12    13   ar
    17    12    27   ar
    18    12    43    1
    19    13    14    1
    20    13    30   ar
    21    14    17    2
    22    15    16    1
    23    16    17    1
    24    16    18    1
    25    16    22    1
    26    18    19    1
    27    19    20    1
    28    20    21    1
    29    21    22    1
    30    23    24    1
    31    23    88    1
    32    23    89    1
    33    24    25    1
    34    24    26    1
    35    24    90    1
    36    25    91    1
    37    25    92    1
    38    25    93    1
    39    26    94    1
    40    26    95    1
    41    26    96    1
    42    27    28   ar
    43    28    29   ar
    44    29    30   ar
    45    29    31    1
    46    30    33    1
    47    31    32    1
    48    32    33    1
    49    32    35    1
    50    34    97    1
    51    34    98    1
    52    34    99    1
    53    35    61    1
    54    36    37    1
    55    36    60    1
    56    37    38    1
    57    38    39    1
    58    39    40    1
    59    40    41    1
    60    41    42    1
    61    45   100    1
    62    47   101    1
    63    47   102    1
    64    47   103    1
    65    48   104    1
    66    49   105    1
    67    49   106    1
    68    49   107    1
    69    50   108    1
    70    51    59    1
    71    52   109    1
    72    52   110    1
    73    52   111    1
    74    53    54    1
    75    54    55    2
    76    54    56    1
    77    56   112    1
    78    56   113    1
    79    56   114    1
    80    57   115    1
    81    57   116    1
    82    57   117    1
    83    58   118    1
    84    58   119    1
    85    58   120    1
    86    59   121    1
    87    59   122    1
    88    59   123    1
    89    60    61    2
    90     1    47    1
    91     1    62    1
    92     2    63    1
    93     3    64    1
    94     4    65    1
    95     5     6    1
    96     7     8    2
    97     9    78    1
    98    15    79    1
    99    18    80    1
   100    18    81    1
   101    19    82    1
   102    19    83    1
   103    20    23    1
   104    21    84    1
   105    21    85    1
   106    22    86    1
   107    22    87    1
   108    27    45    1
   109    28    34    1
   110    32    58    1
   111    33    46    2
   112    36    51    1
   113    36    66    1
   114    37    52    1
   115    37    67    1
   116    38    53    1
   117    38    68    1
   118    42    48    1
   119    42    72    1
   120    43    44    2
   121    60    73    1
   122    61    74    1
   123    39    69    1
   124    39    57    1
   125    40    70    1
   126    40    50    1
   127    41    71    1
   128    41    49    1
