@<TRIPOS>MOLECULE
*****
 123 128 0 0 0
SMALL
GASTEIGER

@<TRIPOS>ATOM
     1 C         4.37464   2.446081   -1.585833 C.3        1 UNL1     0.0009
     2 C         5.546079   2.481538   -3.022325 C.2        1 UNL1     -0.0787
     3 C         6.863427   2.246388   -3.574907 C.2        1 UNL1     -0.0649
     4 C         7.353547   2.380518   -5.189883 C.2        1 UNL1     -0.0542
     5 C         8.331441   2.000281   -6.14184 C.2        1 UNL1     0.0115
     6 C         9.719677   1.325218   -6.316229 C.3        1 UNL1     -0.0348
     7 C         7.989265   2.137408   -7.704242 C.2        1 UNL1     0.2441
     8 O         8.41021   3.051402   -8.399905 O.2        1 UNL1     -0.2702
     9 N         7.391921   1.001692   -8.278245 N.am        1 UNL1     -0.2772
     10 C         6.023954   1.057342   -8.140792 C.2        1 UNL1     0.1049
     11 C         5.538126   0.647085   -6.98326 C.2        1 UNL1     0.0801
     12 C         4.056431   2.565273   -8.475951 C.ar        1 UNL1     0.0753
     13 C         3.683051   2.247438   -7.131266 C.ar        1 UNL1     0.0305
     14 C         4.340921   1.175467   -6.387534 C.2        1 UNL1     0.0924
     15 N         6.138998   -0.016468   -5.980674 N.pl3        1 UNL1     -0.3170
     16 C         5.127316   -0.374543   -5.022271 C.3        1 UNL1     0.1275
     17 N         4.06258   0.682781   -5.183909 N.2        1 UNL1     -0.2557
     18 C         4.500102   -1.682782   -5.494306 C.3        1 UNL1     0.0016
     19 C         5.60131   -2.717736   -5.661049 C.3        1 UNL1     0.0026
     20 N         6.277022   -2.891889   -4.382725 N.3        1 UNL1     -0.3018
     21 C         6.860316   -1.673759   -3.816779 C.3        1 UNL1     0.0026
     22 C         5.735873   -0.649619   -3.653499 C.3        1 UNL1     0.0016
     23 C         7.135491   -4.059277   -4.353062 C.3        1 UNL1     0.0012
     24 C         6.295193   -5.345997   -4.355846 C.3        1 UNL1     -0.0339
     25 C         7.185829   -6.599305   -4.349193 C.3        1 UNL1     -0.0615
     26 C         5.329769   -5.340055   -3.18337 C.3        1 UNL1     -0.0615
     27 C         3.345939   3.504732   -9.219413 C.ar        1 UNL1     0.1347
     28 C         2.224965   4.159513   -8.741157 C.ar        1 UNL1     0.0342
     29 C         1.905219   3.8669   -7.398285 C.ar        1 UNL1     0.1435
     30 C         2.629456   2.954988   -6.629444 C.ar        1 UNL1     0.0774
     31 O         0.778313   4.340236   -6.822922 O.3        1 UNL1     -0.4436
     32 C         0.561547   3.483774   -5.691393 C.3        1 UNL1     0.3143
     33 C         1.923597   2.904789   -5.366111 C.2        1 UNL1     0.2504
     34 C         1.270222   4.984735   -9.55821 C.3        1 UNL1     -0.0327
     35 O         0.189735   4.320299   -4.589017 O.2        1 UNL1     -0.4528
     36 C         -2.079936   2.208191   -2.399111 C.3        1 UNL1     0.0854
     37 C         -1.792236   0.815376   -1.717336 C.3        1 UNL1     0.0236
     38 C         -2.021656   0.77938   -0.130573 C.3        1 UNL1     0.1131
     39 C         -1.352687   1.882589   0.784676 C.3        1 UNL1     0.0200
     40 C         0.230019   2.34445   0.531372 C.3        1 UNL1     0.0661
     41 C         1.555948   1.299239   0.366884 C.3        1 UNL1     0.0091
     42 C         3.091683   1.471642   -0.621649 C.3        1 UNL1     0.0661
     43 C         5.170747   1.796156   -9.083419 C.2        1 UNL1     0.2131
     44 O         5.331168   1.678779   -10.284762 O.2        1 UNL1     -0.2851
     45 O         3.802597   3.789428   -10.504656 O.3        1 UNL1     -0.5056
     46 O         2.339965   2.511404   -4.299462 O.2        1 UNL1     -0.2836
     47 C         4.683427   3.612672   -0.60926 C.3        1 UNL1     -0.0566
     48 O         3.988111   1.075455   0.491261 O.3        1 UNL1     -0.3909
     49 C         1.044473   -0.106836   0.145882 C.3        1 UNL1     -0.0577
     50 O         0.303277   3.373583   -0.434674 O.3        1 UNL1     -0.3910
     51 O         -2.329956   3.283371   -1.522236 O.3        1 UNL1     -0.3753
     52 C         -0.602451   0.066979   -2.402363 C.3        1 UNL1     -0.0564
     53 O         -2.086242   -0.60902   0.435553 O.3        1 UNL1     -0.4608
     54 C         -1.573793   -0.999107   1.645164 C.2        1 UNL1     0.3042
     55 O         -0.532215   -1.621414   1.849344 O.2        1 UNL1     -0.2512
     56 C         -2.389307   -0.539674   2.820141 C.3        1 UNL1     0.0332
     57 C         -2.436473   3.034735   1.021623 C.3        1 UNL1     -0.0567
     58 C         -0.362486   2.342805   -6.177071 C.3        1 UNL1     0.0210
     59 C         -3.686949   3.722672   -1.484152 C.3        1 UNL1     0.0372
     60 C         -1.036051   2.667888   -3.355221 C.2        1 UNL1     -0.0208
     61 C         -0.468833   3.865531   -3.505752 C.2        1 UNL1     0.0882
     62 H         3.57758   2.798098   -2.251785 H        1 UNL1     0.0365
     63 H         4.916184   2.940147   -3.787426 H        1 UNL1     0.0576
     64 H         7.656889   1.781733   -2.985313 H        1 UNL1     0.0615
     65 H         6.532613   2.922464   -5.667214 H        1 UNL1     0.0622
     66 H         -2.985199   2.03996   -2.999314 H        1 UNL1     0.0645
     67 H         -2.6131   0.168388   -2.072509 H        1 UNL1     0.0362
     68 H         -3.10194   0.987519   -0.09614 H        1 UNL1     0.0741
     69 H         -1.334615   1.523998   1.805212 H        1 UNL1     0.0359
     70 H         0.436642   2.852371   1.492821 H        1 UNL1     0.0600
     71 H         1.891268   1.244999   1.421197 H        1 UNL1     0.0348
     72 H         2.681284   2.486747   -0.519417 H        1 UNL1     0.0602
     73 H         -0.845782   1.898113   -4.061261 H        1 UNL1     0.0628
     74 H         -0.566336   4.687631   -2.795906 H        1 UNL1     0.1022
     75 H         10.45131   1.73752   -5.580189 H        1 UNL1     0.0279
     76 H         9.767413   0.256374   -6.120366 H        1 UNL1     0.0279
     77 H         10.201993   1.584825   -7.269998 H        1 UNL1     0.0279
     78 H         7.714435   0.165134   -7.796339 H        1 UNL1     0.1553
     79 H         6.993761   -0.53126   -6.086986 H        1 UNL1     0.1484
     80 H         3.753634   -2.007087   -4.759202 H        1 UNL1     0.0317
     81 H         3.967331   -1.542139   -6.440892 H        1 UNL1     0.0317
     82 H         6.313125   -2.431457   -6.449259 H        1 UNL1     0.0428
     83 H         5.132401   -3.642077   -5.999823 H        1 UNL1     0.0428
     84 H         7.291334   -1.815572   -2.820825 H        1 UNL1     0.0428
     85 H         7.700351   -1.303945   -4.420845 H        1 UNL1     0.0428
     86 H         6.169968   0.174026   -3.117625 H        1 UNL1     0.0317
     87 H         4.977939   -1.032777   -2.959365 H        1 UNL1     0.0317
     88 H         7.759467   -4.047397   -5.256283 H        1 UNL1     0.0429
     89 H         7.815595   -4.032341   -3.491954 H        1 UNL1     0.0429
     90 H         5.671418   -5.365681   -5.257361 H        1 UNL1     0.0308
     91 H         7.987938   -6.51331   -3.610053 H        1 UNL1     0.0233
     92 H         6.594355   -7.492383   -4.134301 H        1 UNL1     0.0233
     93 H         7.66514   -6.776184   -5.319662 H        1 UNL1     0.0233
     94 H         5.019311   -6.363   -2.944552 H        1 UNL1     0.0233
     95 H         5.818272   -4.920924   -2.299256 H        1 UNL1     0.0233
     96 H         4.435826   -4.750577   -3.405518 H        1 UNL1     0.0233
     97 H         0.254771   4.603402   -9.506488 H        1 UNL1     0.0280
     98 H         1.21891   6.024477   -9.209555 H        1 UNL1     0.0280
     99 H         1.587943   4.979566   -10.613729 H        1 UNL1     0.0280
     100 H         4.723888   3.972881   -10.561134 H        1 UNL1     0.2922
     101 H         3.93534   4.39668   -0.724817 H        1 UNL1     0.0236
     102 H         5.697854   3.997515   -0.708341 H        1 UNL1     0.0236
     103 H         4.602537   3.301982   0.445786 H        1 UNL1     0.0236
     104 H         3.42446   0.786781   1.235529 H        1 UNL1     0.2098
     105 H         1.454126   -0.601033   -0.731481 H        1 UNL1     0.0234
     106 H         1.116998   -0.759734   1.015589 H        1 UNL1     0.0234
     107 H         -0.0   0.0   0.0 H        1 UNL1     0.0234
     108 H         0.205195   4.222593   0.037904 H        1 UNL1     0.2098
     109 H         -0.799941   -0.145938   -3.462257 H        1 UNL1     0.0234
     110 H         0.351496   0.596656   -2.306598 H        1 UNL1     0.0234
     111 H         -0.413843   -0.907962   -1.933466 H        1 UNL1     0.0234
     112 H         -1.916102   -0.864984   3.75159 H        1 UNL1     0.0342
     113 H         -2.542813   0.538407   2.815659 H        1 UNL1     0.0342
     114 H         -3.377161   -1.016812   2.759728 H        1 UNL1     0.0342
     115 H         -2.345921   3.481248   2.02143 H        1 UNL1     0.0234
     116 H         -2.387386   3.846918   0.293613 H        1 UNL1     0.0234
     117 H         -3.475246   2.662956   1.047564 H        1 UNL1     0.0234
     118 H         -1.37256   2.411374   -5.736556 H        1 UNL1     0.0309
     119 H         -0.449659   2.295119   -7.267177 H        1 UNL1     0.0309
     120 H         -0.014005   1.354692   -5.857226 H        1 UNL1     0.0309
     121 H         -3.686363   4.768912   -1.179623 H        1 UNL1     0.0524
     122 H         -4.17332   3.664775   -2.472144 H        1 UNL1     0.0524
     123 H         -4.25528   3.126453   -0.775903 H        1 UNL1     0.0524
@<TRIPOS>BOND
     1     1     2    1
     2     1    42    1
     3     2     3    2
     4     3     4    1
     5     4     5    2
     6     5     7    1
     7     6    75    1
     8     6    76    1
     9     6    77    1
    10     7     9   am
    11     9    10    1
    12    10    11    2
    13    10    43    1
    14    11    14    1
    15    11    15    1
    16    12    13   ar
    17    12    27   ar
    18    12    43    1
    19    13    14    1
    20    13    30   ar
    21    14    17    2
    22    15    16    1
    23    16    17    1
    24    16    18    1
    25    16    22    1
    26    18    19    1
    27    19    20    1
    28    20    21    1
    29    21    22    1
    30    23    24    1
    31    23    88    1
    32    23    89    1
    33    24    25    1
    34    24    26    1
    35    24    90    1
    36    25    91    1
    37    25    92    1
    38    25    93    1
    39    26    94    1
    40    26    95    1
    41    26    96    1
    42    27    28   ar
    43    28    29   ar
    44    29    30   ar
    45    29    31    1
    46    30    33    1
    47    31    32    1
    48    32    33    1
    49    32    35    1
    50    34    97    1
    51    34    98    1
    52    34    99    1
    53    35    61    1
    54    36    37    1
    55    36    60    1
    56    37    38    1
    57    38    39    1
    58    39    40    1
    59    40    41    1
    60    41    42    1
    61    45   100    1
    62    47   101    1
    63    47   102    1
    64    47   103    1
    65    48   104    1
    66    49   105    1
    67    49   106    1
    68    49   107    1
    69    50   108    1
    70    51    59    1
    71    52   109    1
    72    52   110    1
    73    52   111    1
    74    53    54    1
    75    54    55    2
    76    54    56    1
    77    56   112    1
    78    56   113    1
    79    56   114    1
    80    57   115    1
    81    57   116    1
    82    57   117    1
    83    58   118    1
    84    58   119    1
    85    58   120    1
    86    59   121    1
    87    59   122    1
    88    59   123    1
    89    60    61    2
    90     1    47    1
    91     1    62    1
    92     2    63    1
    93     3    64    1
    94     4    65    1
    95     5     6    1
    96     7     8    2
    97     9    78    1
    98    15    79    1
    99    18    80    1
   100    18    81    1
   101    19    82    1
   102    19    83    1
   103    20    23    1
   104    21    84    1
   105    21    85    1
   106    22    86    1
   107    22    87    1
   108    27    45    1
   109    28    34    1
   110    32    58    1
   111    33    46    2
   112    36    51    1
   113    36    66    1
   114    37    52    1
   115    37    67    1
   116    38    53    1
   117    38    68    1
   118    42    48    1
   119    42    72    1
   120    43    44    2
   121    60    73    1
   122    61    74    1
   123    39    69    1
   124    39    57    1
   125    40    70    1
   126    40    50    1
   127    41    71    1
   128    41    49    1
