@<TRIPOS>MOLECULE
*****
 123 128 0 0 0
SMALL
GASTEIGER

@<TRIPOS>ATOM
     1 C         5.166401   1.760166   0.457584 C.3        1 UNL1     0.0009
     2 C         6.595851   2.569109   -0.402255 C.2        1 UNL1     -0.0787
     3 C         7.873644   2.473484   -1.076159 C.2        1 UNL1     -0.0649
     4 C         8.743542   3.710258   -1.837751 C.2        1 UNL1     -0.0542
     5 C         9.756889   4.004805   -2.782975 C.2        1 UNL1     0.0115
     6 C         10.880869   3.381523   -3.655622 C.3        1 UNL1     -0.0348
     7 C         9.845113   5.488063   -3.390553 C.2        1 UNL1     0.2441
     8 O         10.669615   6.311622   -3.018434 O.2        1 UNL1     -0.2702
     9 N         9.086951   5.693012   -4.556459 N.am        1 UNL1     -0.2772
     10 C         7.805438   6.077012   -4.234606 C.2        1 UNL1     0.1049
     11 C         6.963654   5.103863   -3.936944 C.2        1 UNL1     0.0801
     12 C         6.512632   7.681311   -2.816082 C.ar        1 UNL1     0.0753
     13 C         5.758913   6.5519   -2.363373 C.ar        1 UNL1     0.0305
     14 C         5.874539   5.246241   -3.009079 C.2        1 UNL1     0.0924
     15 N         7.088138   3.775101   -4.096392 N.pl3        1 UNL1     -0.3170
     16 C         5.821625   3.173281   -3.773885 C.3        1 UNL1     0.1275
     17 N         5.189449   4.127459   -2.790207 N.2        1 UNL1     -0.2557
     18 C         4.960563   3.230079   -5.032078 C.3        1 UNL1     0.0016
     19 C         5.709674   2.547251   -6.165289 C.3        1 UNL1     0.0026
     20 N         5.985279   1.169867   -5.780731 N.3        1 UNL1     -0.3018
     21 C         6.756915   1.011544   -4.546276 C.3        1 UNL1     0.0026
     22 C         5.983877   1.700746   -3.420528 C.3        1 UNL1     0.0016
     23 C         6.424438   0.350926   -6.892989 C.3        1 UNL1     0.0012
     24 C         5.263263   0.098616   -7.867549 C.3        1 UNL1     -0.0339
     25 C         5.348516   1.021011   -9.094731 C.3        1 UNL1     -0.0615
     26 C         5.229925   -1.365525   -8.269992 C.3        1 UNL1     -0.0615
     27 C         6.308684   8.948738   -2.27557 C.ar        1 UNL1     0.1347
     28 C         5.35522   9.216525   -1.309523 C.ar        1 UNL1     0.0342
     29 C         4.659092   8.08071   -0.844235 C.ar        1 UNL1     0.1435
     30 C         4.878073   6.798992   -1.350663 C.ar        1 UNL1     0.0774
     31 O         3.623354   8.192303   0.01588 O.3        1 UNL1     -0.4436
     32 C         2.903459   6.957872   -0.121249 C.3        1 UNL1     0.3143
     33 C         3.915475   5.966789   -0.65957 C.2        1 UNL1     0.2504
     34 C         4.908252   10.581805   -0.86643 C.3        1 UNL1     -0.0327
     35 O         2.552227   6.520835   1.19742 O.2        1 UNL1     -0.4528
     36 C         -0.689094   4.581482   0.822141 C.3        1 UNL1     0.0854
     37 C         -0.997416   3.319934   -0.072821 C.3        1 UNL1     0.0236
     38 C         -1.590159   2.057857   0.719368 C.3        1 UNL1     0.1131
     39 C         -0.854909   1.528942   2.016258 C.3        1 UNL1     0.0200
     40 C         0.806826   1.387016   2.046805 C.3        1 UNL1     0.0661
     41 C         1.760337   0.619871   0.872108 C.3        1 UNL1     0.0091
     42 C         3.463476   0.985939   0.297029 C.3        1 UNL1     0.0661
     43 C         7.455906   7.475287   -3.943046 C.2        1 UNL1     0.2131
     44 O         7.849215   8.373984   -4.664426 O.2        1 UNL1     -0.2851
     45 O         7.11574   9.985448   -2.739609 O.3        1 UNL1     -0.5056
     46 O         3.934917   4.763337   -0.528501 O.2        1 UNL1     -0.2836
     47 C         5.572925   1.332046   1.893353 C.3        1 UNL1     -0.0566
     48 O         3.915619   -0.424162   0.376399 O.3        1 UNL1     -0.3909
     49 C         0.918709   0.385043   -0.362401 C.3        1 UNL1     -0.0577
     50 O         1.40689   2.606313   2.435342 O.3        1 UNL1     -0.3910
     51 O         -0.80383   4.392021   2.214395 O.3        1 UNL1     -0.3753
     52 C         0.03996   3.161328   -1.231978 C.3        1 UNL1     -0.0564
     53 O         -2.196274   1.017257   -0.176234 O.3        1 UNL1     -0.4608
     54 C         -2.394511   -0.297957   0.153682 C.2        1 UNL1     0.3042
     55 O         -1.81237   -1.279344   -0.306568 O.2        1 UNL1     -0.2512
     56 C         -3.408445   -0.498278   1.243876 C.3        1 UNL1     0.0332
     57 C         -1.569269   2.19681   3.281887 C.3        1 UNL1     -0.0567
     58 C         1.82079   7.200253   -1.198565 C.3        1 UNL1     0.0210
     59 C         -1.114823   5.570602   2.956079 C.3        1 UNL1     0.0372
     60 C         0.637024   5.213364   0.582778 C.2        1 UNL1     -0.0208
     61 C         1.554581   5.650879   1.446151 C.2        1 UNL1     0.0882
     62 H         4.688918   2.743336   0.547578 H        1 UNL1     0.0365
     63 H         6.328   3.622366   -0.295596 H        1 UNL1     0.0576
     64 H         8.331964   1.507551   -1.299818 H        1 UNL1     0.0615
     65 H         8.256714   4.624719   -1.488118 H        1 UNL1     0.0622
     66 H         -1.437341   5.326285   0.51646 H        1 UNL1     0.0645
     67 H         -1.867545   3.627208   -0.678641 H        1 UNL1     0.0362
     68 H         -2.535894   2.492804   1.077039 H        1 UNL1     0.0741
     69 H         -1.182975   0.517197   2.21413 H        1 UNL1     0.0359
     70 H         0.925696   0.72724   2.927501 H        1 UNL1     0.0600
     71 H         1.808878   -0.401047   1.299107 H        1 UNL1     0.0348
     72 H         3.362837   1.47426   1.277198 H        1 UNL1     0.0602
     73 H         0.747824   5.410502   -0.454579 H        1 UNL1     0.0628
     74 H         1.544372   5.440557   2.51615 H        1 UNL1     0.1022
     75 H         10.909985   2.272959   -3.524204 H        1 UNL1     0.0279
     76 H         10.773515   3.486979   -4.732852 H        1 UNL1     0.0279
     77 H         11.88831   3.666336   -3.31851 H        1 UNL1     0.0279
     78 H         9.023463   4.822744   -5.080559 H        1 UNL1     0.1553
     79 H         7.75035   3.348332   -4.717903 H        1 UNL1     0.1484
     80 H         4.001617   2.737134   -4.831596 H        1 UNL1     0.0317
     81 H         4.729969   4.266243   -5.301973 H        1 UNL1     0.0317
     82 H         6.637569   3.080478   -6.419439 H        1 UNL1     0.0428
     83 H         5.078681   2.600722   -7.053004 H        1 UNL1     0.0428
     84 H         6.881482   -0.031035   -4.237529 H        1 UNL1     0.0428
     85 H         7.785519   1.381769   -4.656844 H        1 UNL1     0.0428
     86 H         6.506672   1.451826   -2.515701 H        1 UNL1     0.0317
     87 H         5.006295   1.221034   -3.288976 H        1 UNL1     0.0317
     88 H         7.215917   0.894257   -7.425575 H        1 UNL1     0.0429
     89 H         6.861331   -0.593782   -6.544527 H        1 UNL1     0.0429
     90 H         4.31424   0.289385   -7.352596 H        1 UNL1     0.0308
     91 H         6.300762   0.898031   -9.619331 H        1 UNL1     0.0233
     92 H         4.528523   0.818691   -9.787758 H        1 UNL1     0.0233
     93 H         5.26767   2.081385   -8.826577 H        1 UNL1     0.0233
     94 H         4.548056   -1.509518   -9.115069 H        1 UNL1     0.0233
     95 H         6.226589   -1.690068   -8.581913 H        1 UNL1     0.0233
     96 H         4.894908   -1.998925   -7.443834 H        1 UNL1     0.0233
     97 H         4.113462   10.530692   -0.128239 H        1 UNL1     0.0280
     98 H         5.720403   11.150291   -0.394742 H        1 UNL1     0.0280
     99 H         4.536553   11.14861   -1.735721 H        1 UNL1     0.0280
     100 H         6.645036   10.735453   -3.058282 H        1 UNL1     0.2922
     101 H         4.711182   0.908131   2.408477 H        1 UNL1     0.0236
     102 H         6.036749   2.135218   2.464988 H        1 UNL1     0.0236
     103 H         6.321732   0.522448   1.887705 H        1 UNL1     0.0236
     104 H         4.335674   -0.55051   1.249646 H        1 UNL1     0.2098
     105 H         0.700428   1.283203   -0.934654 H        1 UNL1     0.0234
     106 H         1.285578   -0.402414   -1.020615 H        1 UNL1     0.0234
     107 H         0.0   -0.0   0.0 H        1 UNL1     0.0234
     108 H         1.217433   3.259247   1.734234 H        1 UNL1     0.2098
     109 H         1.068883   3.062607   -0.858772 H        1 UNL1     0.0234
     110 H         -0.188327   2.325883   -1.902546 H        1 UNL1     0.0234
     111 H         0.046211   4.038697   -1.89238 H        1 UNL1     0.0234
     112 H         -3.503271   -1.564118   1.472652 H        1 UNL1     0.0342
     113 H         -3.166187   0.073318   2.138544 H        1 UNL1     0.0342
     114 H         -4.381692   -0.144813   0.876428 H        1 UNL1     0.0342
     115 H         -2.640681   1.956392   3.320133 H        1 UNL1     0.0234
     116 H         -1.133692   1.908828   4.240735 H        1 UNL1     0.0234
     117 H         -1.599635   3.299162   3.238978 H        1 UNL1     0.0234
     118 H         0.919483   7.68112   -0.779734 H        1 UNL1     0.0309
     119 H         2.182147   7.792619   -2.045162 H        1 UNL1     0.0309
     120 H         1.434814   6.267421   -1.623949 H        1 UNL1     0.0309
     121 H         -0.278983   6.260687   2.844219 H        1 UNL1     0.0524
     122 H         -2.017286   6.077938   2.57633 H        1 UNL1     0.0524
     123 H         -1.262073   5.327023   4.004449 H        1 UNL1     0.0524
@<TRIPOS>BOND
     1     1     2    1
     2     1    42    1
     3     2     3    2
     4     3     4    1
     5     4     5    2
     6     5     7    1
     7     6    75    1
     8     6    76    1
     9     6    77    1
    10     7     9   am
    11     9    10    1
    12    10    11    2
    13    10    43    1
    14    11    14    1
    15    11    15    1
    16    12    13   ar
    17    12    27   ar
    18    12    43    1
    19    13    14    1
    20    13    30   ar
    21    14    17    2
    22    15    16    1
    23    16    17    1
    24    16    18    1
    25    16    22    1
    26    18    19    1
    27    19    20    1
    28    20    21    1
    29    21    22    1
    30    23    24    1
    31    23    88    1
    32    23    89    1
    33    24    25    1
    34    24    26    1
    35    24    90    1
    36    25    91    1
    37    25    92    1
    38    25    93    1
    39    26    94    1
    40    26    95    1
    41    26    96    1
    42    27    28   ar
    43    28    29   ar
    44    29    30   ar
    45    29    31    1
    46    30    33    1
    47    31    32    1
    48    32    33    1
    49    32    35    1
    50    34    97    1
    51    34    98    1
    52    34    99    1
    53    35    61    1
    54    36    37    1
    55    36    60    1
    56    37    38    1
    57    38    39    1
    58    39    40    1
    59    40    41    1
    60    41    42    1
    61    45   100    1
    62    47   101    1
    63    47   102    1
    64    47   103    1
    65    48   104    1
    66    49   105    1
    67    49   106    1
    68    49   107    1
    69    50   108    1
    70    51    59    1
    71    52   109    1
    72    52   110    1
    73    52   111    1
    74    53    54    1
    75    54    55    2
    76    54    56    1
    77    56   112    1
    78    56   113    1
    79    56   114    1
    80    57   115    1
    81    57   116    1
    82    57   117    1
    83    58   118    1
    84    58   119    1
    85    58   120    1
    86    59   121    1
    87    59   122    1
    88    59   123    1
    89    60    61    2
    90     1    47    1
    91     1    62    1
    92     2    63    1
    93     3    64    1
    94     4    65    1
    95     5     6    1
    96     7     8    2
    97     9    78    1
    98    15    79    1
    99    18    80    1
   100    18    81    1
   101    19    82    1
   102    19    83    1
   103    20    23    1
   104    21    84    1
   105    21    85    1
   106    22    86    1
   107    22    87    1
   108    27    45    1
   109    28    34    1
   110    32    58    1
   111    33    46    2
   112    36    51    1
   113    36    66    1
   114    37    52    1
   115    37    67    1
   116    38    53    1
   117    38    68    1
   118    42    48    1
   119    42    72    1
   120    43    44    2
   121    60    73    1
   122    61    74    1
   123    39    69    1
   124    39    57    1
   125    40    70    1
   126    40    50    1
   127    41    71    1
   128    41    49    1
