@<TRIPOS>MOLECULE
*****
 123 128 0 0 0
SMALL
GASTEIGER

@<TRIPOS>ATOM
     1 C         -1.492124   3.217426   -2.242192 C.3        1 UNL1     0.0009
     2 C         -3.266952   3.602956   -2.614201 C.2        1 UNL1     -0.0787
     3 C         -4.384988   3.608516   -3.53399 C.2        1 UNL1     -0.0649
     4 C         -5.991638   4.037632   -3.216357 C.2        1 UNL1     -0.0542
     5 C         -7.333328   3.920301   -3.655878 C.2        1 UNL1     0.0115
     6 C         -8.23438   3.446003   -4.829109 C.3        1 UNL1     -0.0348
     7 C         -8.519853   4.247029   -2.625153 C.2        1 UNL1     0.2441
     8 O         -9.147004   5.297204   -2.643636 O.2        1 UNL1     -0.2702
     9 N         -8.964467   3.14714   -1.871021 N.am        1 UNL1     -0.2772
     10 C         -8.219907   3.021081   -0.720777 C.2        1 UNL1     0.1049
     11 C         -7.066324   2.389306   -0.840475 C.2        1 UNL1     0.0801
     12 C         -7.349405   4.321043   1.231057 C.ar        1 UNL1     0.0753
     13 C         -6.065545   3.765385   0.928476 C.ar        1 UNL1     0.0305
     14 C         -5.910017   2.679345   -0.036604 C.2        1 UNL1     0.0924
     15 N         -6.583061   1.659161   -1.860216 N.pl3        1 UNL1     -0.3170
     16 C         -5.357773   1.046603   -1.420104 C.3        1 UNL1     0.1275
     17 N         -4.824605   1.984092   -0.364372 N.2        1 UNL1     -0.2557
     18 C         -5.731915   -0.241343   -0.692839 C.3        1 UNL1     0.0016
     19 C         -6.564317   -1.103795   -1.628185 C.3        1 UNL1     0.0026
     20 N         -5.782694   -1.385589   -2.824298 N.3        1 UNL1     -0.3018
     21 C         -5.3235   -0.205224   -3.559314 C.3        1 UNL1     0.0026
     22 C         -4.485704   0.644402   -2.602169 C.3        1 UNL1     0.0016
     23 C         -6.359075   -2.435709   -3.640189 C.3        1 UNL1     0.0012
     24 C         -7.429114   -1.860499   -4.581415 C.3        1 UNL1     -0.0339
     25 C         -8.573474   -2.861529   -4.810405 C.3        1 UNL1     -0.0615
     26 C         -7.943226   -0.538214   -4.039167 C.3        1 UNL1     -0.0615
     27 C         -7.505702   5.27076   2.237898 C.ar        1 UNL1     0.1347
     28 C         -6.462799   5.711301   3.033088 C.ar        1 UNL1     0.0342
     29 C         -5.199913   5.186963   2.684733 C.ar        1 UNL1     0.1435
     30 C         -5.022485   4.262135   1.65496 C.ar        1 UNL1     0.0774
     31 O         -4.10319   5.434213   3.433781 O.3        1 UNL1     -0.4436
     32 C         -3.176037   4.399685   3.071827 C.3        1 UNL1     0.3143
     33 C         -3.610744   3.94241   1.694096 C.2        1 UNL1     0.2504
     34 C         -6.595002   6.531163   4.286264 C.3        1 UNL1     -0.0327
     35 O         -1.890148   5.013721   2.921153 O.2        1 UNL1     -0.4528
     36 C         0.650276   2.348429   3.843407 C.3        1 UNL1     0.0854
     37 C         0.858196   0.913177   3.223452 C.3        1 UNL1     0.0236
     38 C         2.341396   0.61516   2.691427 C.3        1 UNL1     0.1131
     39 C         3.046081   1.640812   1.714838 C.3        1 UNL1     0.0200
     40 C         2.200037   2.317409   0.446428 C.3        1 UNL1     0.0661
     41 C         1.266823   1.470879   -0.689401 C.3        1 UNL1     0.0091
     42 C         -0.254551   1.966998   -1.586447 C.3        1 UNL1     0.0661
     43 C         -8.523505   3.786652   0.497452 C.2        1 UNL1     0.2131
     44 O         -9.667358   3.868709   0.906846 O.2        1 UNL1     -0.2851
     45 O         -8.781149   5.794802   2.438029 O.3        1 UNL1     -0.5056
     46 O         -2.938457   3.446415   0.817814 O.2        1 UNL1     -0.2836
     47 C         -0.560375   4.254001   -2.925812 C.3        1 UNL1     -0.0566
     48 O         0.242152   1.517624   -2.909498 O.3        1 UNL1     -0.3909
     49 C         1.041959   0.063122   -0.184276 C.3        1 UNL1     -0.0577
     50 O         1.514033   3.480083   0.865129 O.3        1 UNL1     -0.3910
     51 O         1.728745   3.244585   3.69767 O.3        1 UNL1     -0.3753
     52 C         -0.41372   0.419498   2.459607 C.3        1 UNL1     -0.0564
     53 O         2.607195   -0.839847   2.437204 O.3        1 UNL1     -0.4608
     54 C         3.845674   -1.42354   2.378871 C.2        1 UNL1     0.3042
     55 O         4.465446   -1.761262   1.371069 O.2        1 UNL1     -0.2512
     56 C         4.493608   -1.595047   3.723297 C.3        1 UNL1     0.0332
     57 C         3.953803   2.609948   2.606462 C.3        1 UNL1     -0.0567
     58 C         -3.397777   3.243236   4.074318 C.3        1 UNL1     0.0210
     59 C         2.452822   3.511296   4.897855 C.3        1 UNL1     0.0372
     60 C         -0.568578   3.064204   3.377335 C.2        1 UNL1     -0.0208
     61 C         -0.732208   4.329035   2.987244 C.2        1 UNL1     0.0882
     62 H         -1.65098   3.568654   -1.215491 H        1 UNL1     0.0365
     63 H         -3.567699   4.09317   -1.685917 H        1 UNL1     0.0576
     64 H         -4.312189   3.157611   -4.526206 H        1 UNL1     0.0615
     65 H         -5.939618   4.544531   -2.248974 H        1 UNL1     0.0622
     66 H         0.50078   2.16636   4.916975 H        1 UNL1     0.0645
     67 H         0.796011   0.234479   4.09182 H        1 UNL1     0.0362
     68 H         2.89511   0.687848   3.63992 H        1 UNL1     0.0741
     69 H         3.863324   1.139168   1.213965 H        1 UNL1     0.0359
     70 H         3.042024   2.697491   -0.163208 H        1 UNL1     0.0600
     71 H         2.027736   1.300237   -1.476072 H        1 UNL1     0.0348
     72 H         0.207675   2.900485   -1.233934 H        1 UNL1     0.0602
     73 H         -1.414151   2.435546   3.507886 H        1 UNL1     0.0628
     74 H         0.084774   5.019376   2.774623 H        1 UNL1     0.1022
     75 H         -8.799136   4.306482   -5.262307 H        1 UNL1     0.0279
     76 H         -7.723843   3.039093   -5.699077 H        1 UNL1     0.0279
     77 H         -9.054963   2.792808   -4.497927 H        1 UNL1     0.0279
     78 H         -8.843498   2.291874   -2.409505 H        1 UNL1     0.1553
     79 H         -7.155351   1.269617   -2.586627 H        1 UNL1     0.1484
     80 H         -4.814579   -0.756485   -0.383176 H        1 UNL1     0.0317
     81 H         -6.293977   -0.025002   0.222002 H        1 UNL1     0.0317
     82 H         -7.519581   -0.622161   -1.883943 H        1 UNL1     0.0428
     83 H         -6.821704   -2.016035   -1.089092 H        1 UNL1     0.0428
     84 H         -4.672828   -0.441971   -4.406892 H        1 UNL1     0.0428
     85 H         -6.159848   0.346095   -4.010853 H        1 UNL1     0.0428
     86 H         -4.059128   1.424396   -3.205187 H        1 UNL1     0.0317
     87 H         -3.609968   0.076215   -2.265498 H        1 UNL1     0.0317
     88 H         -5.557461   -2.87418   -4.248837 H        1 UNL1     0.0429
     89 H         -6.769854   -3.242633   -3.01978 H        1 UNL1     0.0429
     90 H         -6.969018   -1.628732   -5.549304 H        1 UNL1     0.0308
     91 H         -8.906126   -3.30764   -3.86837 H        1 UNL1     0.0233
     92 H         -9.422129   -2.373703   -5.295604 H        1 UNL1     0.0233
     93 H         -8.27946   -3.688718   -5.467787 H        1 UNL1     0.0233
     94 H         -8.844375   -0.232322   -4.581567 H        1 UNL1     0.0233
     95 H         -8.205288   -0.644166   -2.98273 H        1 UNL1     0.0233
     96 H         -7.19439   0.252444   -4.139521 H        1 UNL1     0.0233
     97 H         -6.164826   6.030057   5.14828 H        1 UNL1     0.0280
     98 H         -6.074007   7.494297   4.207567 H        1 UNL1     0.0280
     99 H         -7.661159   6.720162   4.492864 H        1 UNL1     0.0280
     100 H         -9.265744   5.958075   1.648008 H        1 UNL1     0.2922
     101 H         -0.837829   4.362695   -3.974078 H        1 UNL1     0.0236
     102 H         0.4978   4.024822   -2.804464 H        1 UNL1     0.0236
     103 H         -0.680047   5.263597   -2.498508 H        1 UNL1     0.0236
     104 H         0.785011   2.23997   -3.28164 H        1 UNL1     0.2098
     105 H         1.301752   -0.716319   -0.896168 H        1 UNL1     0.0234
     106 H         1.488039   -0.148729   0.78735 H        1 UNL1     0.0234
     107 H         0.0   0.0   0.0 H        1 UNL1     0.0234
     108 H         1.934285   3.782496   1.693201 H        1 UNL1     0.2098
     109 H         -1.29103   0.344787   3.117222 H        1 UNL1     0.0234
     110 H         -0.659809   1.037144   1.58915 H        1 UNL1     0.0234
     111 H         -0.269727   -0.585406   2.040823 H        1 UNL1     0.0234
     112 H         3.762743   -1.976708   4.442684 H        1 UNL1     0.0342
     113 H         5.36948   -2.240414   3.676462 H        1 UNL1     0.0342
     114 H         4.825918   -0.607719   4.072465 H        1 UNL1     0.0342
     115 H         4.630388   2.045991   3.263252 H        1 UNL1     0.0234
     116 H         4.563508   3.30538   2.026219 H        1 UNL1     0.0234
     117 H         3.37896   3.195203   3.344684 H        1 UNL1     0.0234
     118 H         -2.546583   3.12676   4.767794 H        1 UNL1     0.0309
     119 H         -4.320309   3.348186   4.654081 H        1 UNL1     0.0309
     120 H         -3.458277   2.266278   3.582384 H        1 UNL1     0.0309
     121 H         2.913159   4.493449   4.793826 H        1 UNL1     0.0524
     122 H         1.796844   3.544274   5.783656 H        1 UNL1     0.0524
     123 H         3.216188   2.754016   5.052426 H        1 UNL1     0.0524
@<TRIPOS>BOND
     1     1     2    1
     2     1    42    1
     3     2     3    2
     4     3     4    1
     5     4     5    2
     6     5     7    1
     7     6    75    1
     8     6    76    1
     9     6    77    1
    10     7     9   am
    11     9    10    1
    12    10    11    2
    13    10    43    1
    14    11    14    1
    15    11    15    1
    16    12    13   ar
    17    12    27   ar
    18    12    43    1
    19    13    14    1
    20    13    30   ar
    21    14    17    2
    22    15    16    1
    23    16    17    1
    24    16    18    1
    25    16    22    1
    26    18    19    1
    27    19    20    1
    28    20    21    1
    29    21    22    1
    30    23    24    1
    31    23    88    1
    32    23    89    1
    33    24    25    1
    34    24    26    1
    35    24    90    1
    36    25    91    1
    37    25    92    1
    38    25    93    1
    39    26    94    1
    40    26    95    1
    41    26    96    1
    42    27    28   ar
    43    28    29   ar
    44    29    30   ar
    45    29    31    1
    46    30    33    1
    47    31    32    1
    48    32    33    1
    49    32    35    1
    50    34    97    1
    51    34    98    1
    52    34    99    1
    53    35    61    1
    54    36    37    1
    55    36    60    1
    56    37    38    1
    57    38    39    1
    58    39    40    1
    59    40    41    1
    60    41    42    1
    61    45   100    1
    62    47   101    1
    63    47   102    1
    64    47   103    1
    65    48   104    1
    66    49   105    1
    67    49   106    1
    68    49   107    1
    69    50   108    1
    70    51    59    1
    71    52   109    1
    72    52   110    1
    73    52   111    1
    74    53    54    1
    75    54    55    2
    76    54    56    1
    77    56   112    1
    78    56   113    1
    79    56   114    1
    80    57   115    1
    81    57   116    1
    82    57   117    1
    83    58   118    1
    84    58   119    1
    85    58   120    1
    86    59   121    1
    87    59   122    1
    88    59   123    1
    89    60    61    2
    90     1    47    1
    91     1    62    1
    92     2    63    1
    93     3    64    1
    94     4    65    1
    95     5     6    1
    96     7     8    2
    97     9    78    1
    98    15    79    1
    99    18    80    1
   100    18    81    1
   101    19    82    1
   102    19    83    1
   103    20    23    1
   104    21    84    1
   105    21    85    1
   106    22    86    1
   107    22    87    1
   108    27    45    1
   109    28    34    1
   110    32    58    1
   111    33    46    2
   112    36    51    1
   113    36    66    1
   114    37    52    1
   115    37    67    1
   116    38    53    1
   117    38    68    1
   118    42    48    1
   119    42    72    1
   120    43    44    2
   121    60    73    1
   122    61    74    1
   123    39    69    1
   124    39    57    1
   125    40    70    1
   126    40    50    1
   127    41    71    1
   128    41    49    1
