@<TRIPOS>MOLECULE
*****
 123 128 0 0 0
SMALL
GASTEIGER

@<TRIPOS>ATOM
     1 C         5.16748   1.747163   0.493719 C.3        1 UNL1     0.0009
     2 C         6.604742   2.553053   -0.355902 C.2        1 UNL1     -0.0787
     3 C         7.886835   2.454645   -1.021184 C.2        1 UNL1     -0.0649
     4 C         8.76496   3.689703   -1.77609 C.2        1 UNL1     -0.0542
     5 C         9.785427   3.98229   -2.714237 C.2        1 UNL1     0.0115
     6 C         10.913743   3.356731   -3.579628 C.3        1 UNL1     -0.0348
     7 C         9.881469   5.46569   -3.32028 C.2        1 UNL1     0.2441
     8 O         10.705478   6.286962   -2.942065 O.2        1 UNL1     -0.2702
     9 N         9.131746   5.673236   -4.491173 N.am        1 UNL1     -0.2772
     10 C         7.84904   6.060241   -4.177781 C.2        1 UNL1     0.1049
     11 C         7.002833   5.089018   -3.886439 C.2        1 UNL1     0.0801
     12 C         6.550647   7.666906   -2.767059 C.ar        1 UNL1     0.0753
     13 C         5.79106   6.539107   -2.320175 C.ar        1 UNL1     0.0305
     14 C         5.907807   5.233554   -2.965893 C.2        1 UNL1     0.0924
     15 N         7.125083   3.760046   -4.045865 N.pl3        1 UNL1     -0.3170
     16 C         5.854914   3.161196   -3.73233 C.3        1 UNL1     0.1275
     17 N         5.218461   4.116354   -2.752369 N.2        1 UNL1     -0.2557
     18 C         5.002551   3.220905   -4.996298 C.3        1 UNL1     0.0016
     19 C         5.757628   2.536894   -6.124826 C.3        1 UNL1     0.0026
     20 N         6.027182   1.158594   -5.739264 N.3        1 UNL1     -0.3018
     21 C         6.79003   0.997597   -4.499703 C.3        1 UNL1     0.0026
     22 C         6.011094   1.688047   -3.378796 C.3        1 UNL1     0.0016
     23 C         6.471833   0.339231   -6.849027 C.3        1 UNL1     0.0012
     24 C         5.31667   0.090411   -7.831596 C.3        1 UNL1     -0.0339
     25 C         5.342978   1.093916   -8.996218 C.3        1 UNL1     -0.0615
     26 C         5.355784   -1.344165   -8.328829 C.3        1 UNL1     -0.0615
     27 C         6.346197   8.934511   -2.227155 C.ar        1 UNL1     0.1347
     28 C         5.386873   9.204095   -1.267431 C.ar        1 UNL1     0.0342
     29 C         4.684775   8.06974   -0.807581 C.ar        1 UNL1     0.1435
     30 C         4.903989   6.787786   -1.313308 C.ar        1 UNL1     0.0774
     31 O         3.643507   8.1834   0.04556 O.3        1 UNL1     -0.4436
     32 C         2.921483   6.950854   -0.097215 C.3        1 UNL1     0.3143
     33 C         3.934654   5.957572   -0.629277 C.2        1 UNL1     0.2504
     34 C         4.940315   10.570218   -0.82653 C.3        1 UNL1     -0.0327
     35 O         2.560225   6.513898   1.218769 O.2        1 UNL1     -0.4528
     36 C         -0.683301   4.582873   0.820311 C.3        1 UNL1     0.0854
     37 C         -0.988689   3.32264   -0.077506 C.3        1 UNL1     0.0236
     38 C         -1.589938   2.061569   0.709859 C.3        1 UNL1     0.1131
     39 C         -0.864822   1.530036   2.011377 C.3        1 UNL1     0.0200
     40 C         0.796308   1.383941   2.053105 C.3        1 UNL1     0.0661
     41 C         1.75585   0.615127   0.884425 C.3        1 UNL1     0.0091
     42 C         3.463758   0.977289   0.321138 C.3        1 UNL1     0.0661
     43 C         7.501026   7.459209   -3.887729 C.2        1 UNL1     0.2131
     44 O         7.901459   8.357357   -4.605866 O.2        1 UNL1     -0.2851
     45 O         7.158965   9.969483   -2.685065 O.3        1 UNL1     -0.5056
     46 O         3.950206   4.753996   -0.498827 O.2        1 UNL1     -0.2836
     47 C         5.563186   1.317161   1.931946 C.3        1 UNL1     -0.0566
     48 O         3.911835   -0.433984   0.402696 O.3        1 UNL1     -0.3909
     49 C         0.922033   0.383149   -0.355909 C.3        1 UNL1     -0.0577
     50 O         1.39676   2.601501   2.446461 O.3        1 UNL1     -0.3910
     51 O         -0.80795   4.392857   2.211636 O.3        1 UNL1     -0.3753
     52 C         0.056127   3.162146   -1.2297 C.3        1 UNL1     -0.0564
     53 O         -2.192556   1.023028   -0.190479 O.3        1 UNL1     -0.4608
     54 C         -2.415018   -0.287084   0.144253 C.2        1 UNL1     0.3042
     55 O         -1.842773   -1.279923   -0.303683 O.2        1 UNL1     -0.2512
     56 C         -3.444701   -0.465571   1.223424 C.3        1 UNL1     0.0332
     57 C         -1.586083   2.19892   3.272548 C.3        1 UNL1     -0.0567
     58 C         1.846755   7.19659   -1.181698 C.3        1 UNL1     0.0210
     59 C         -1.15195   5.565408   2.948288 C.3        1 UNL1     0.0372
     60 C         0.645982   5.211586   0.590339 C.2        1 UNL1     -0.0208
     61 C         1.55875   5.646286   1.460187 C.2        1 UNL1     0.0882
     62 H         4.69185   2.731468   0.581084 H        1 UNL1     0.0365
     63 H         6.338801   3.606911   -0.250407 H        1 UNL1     0.0576
     64 H         8.344252   1.487705   -1.24233 H        1 UNL1     0.0615
     65 H         8.278054   4.605165   -1.429198 H        1 UNL1     0.0622
     66 H         -1.427597   5.329728   0.510025 H        1 UNL1     0.0645
     67 H         -1.853919   3.632453   -0.689022 H        1 UNL1     0.0362
     68 H         -2.536989   2.498661   1.061379 H        1 UNL1     0.0741
     69 H         -1.196745   0.518994   2.206391 H        1 UNL1     0.0359
     70 H         0.907556   0.723338   2.934177 H        1 UNL1     0.0600
     71 H         1.798948   -0.406166   1.311109 H        1 UNL1     0.0348
     72 H         3.357691   1.465267   1.300905 H        1 UNL1     0.0602
     73 H         0.764307   5.409074   -0.44612 H        1 UNL1     0.0628
     74 H         1.540758   5.435343   2.529962 H        1 UNL1     0.1022
     75 H         10.957808   2.251396   -3.42689 H        1 UNL1     0.0279
     76 H         10.800517   3.439844   -4.658211 H        1 UNL1     0.0279
     77 H         11.918803   3.661019   -3.252574 H        1 UNL1     0.0279
     78 H         9.069645   4.803447   -5.016233 H        1 UNL1     0.1553
     79 H         7.79043   3.332001   -4.663136 H        1 UNL1     0.1484
     80 H         4.041041   2.730236   -4.80263 H        1 UNL1     0.0317
     81 H         4.776378   4.257805   -5.267106 H        1 UNL1     0.0317
     82 H         6.688552   3.067956   -6.372346 H        1 UNL1     0.0428
     83 H         5.132806   2.592478   -7.016767 H        1 UNL1     0.0428
     84 H         6.909899   -0.045476   -4.190767 H        1 UNL1     0.0428
     85 H         7.820279   1.365319   -4.603063 H        1 UNL1     0.0428
     86 H         6.527117   1.437275   -2.470599 H        1 UNL1     0.0317
     87 H         5.031449   1.210699   -3.254175 H        1 UNL1     0.0317
     88 H         7.268259   0.880906   -7.375895 H        1 UNL1     0.0429
     89 H         6.903995   -0.606775   -6.498198 H        1 UNL1     0.0429
     90 H         4.363657   0.197292   -7.300036 H        1 UNL1     0.0308
     91 H         6.293259   1.051018   -9.5368 H        1 UNL1     0.0233
     92 H         4.524725   0.898326   -9.693223 H        1 UNL1     0.0233
     93 H         5.215763   2.129466   -8.658156 H        1 UNL1     0.0233
     94 H         4.659754   -1.473297   -9.164714 H        1 UNL1     0.0233
     95 H         6.3602   -1.588676   -8.685653 H        1 UNL1     0.0233
     96 H         5.080906   -2.04812   -7.538349 H        1 UNL1     0.0233
     97 H         4.146701   10.520506   -0.086979 H        1 UNL1     0.0280
     98 H         5.753088   11.139873   -0.357331 H        1 UNL1     0.0280
     99 H         4.567125   11.1351   -1.696435 H        1 UNL1     0.0280
     100 H         6.692287   10.720068   -3.008262 H        1 UNL1     0.2922
     101 H         4.700055   0.883672   2.436673 H        1 UNL1     0.0236
     102 H         6.014027   2.122208   2.511276 H        1 UNL1     0.0236
     103 H         6.319174   0.514245   1.930902 H        1 UNL1     0.0236
     104 H         4.331023   -0.560336   1.276359 H        1 UNL1     0.2098
     105 H         0.709721   1.282225   -0.928969 H        1 UNL1     0.0234
     106 H         1.291498   -0.404696   -1.012204 H        1 UNL1     0.0234
     107 H         0.0   -0.0   0.0 H        1 UNL1     0.0234
     108 H         1.198667   3.259996   1.752983 H        1 UNL1     0.2098
     109 H         1.080793   3.048239   -0.849177 H        1 UNL1     0.0234
     110 H         -0.176347   2.335296   -1.909419 H        1 UNL1     0.0234
     111 H         0.077833   4.04512   -1.882258 H        1 UNL1     0.0234
     112 H         -3.567899   -1.529405   1.447979 H        1 UNL1     0.0342
     113 H         -3.197754   0.097428   2.122253 H        1 UNL1     0.0342
     114 H         -4.405187   -0.087369   0.847135 H        1 UNL1     0.0342
     115 H         -2.65035   1.930825   3.324024 H        1 UNL1     0.0234
     116 H         -1.13496   1.937984   4.231948 H        1 UNL1     0.0234
     117 H         -1.646174   3.29925   3.212506 H        1 UNL1     0.0234
     118 H         0.945696   7.683682   -0.769583 H        1 UNL1     0.0309
     119 H         2.216609   7.784669   -2.027614 H        1 UNL1     0.0309
     120 H         1.45803   6.264865   -1.607008 H        1 UNL1     0.0309
     121 H         -0.347437   6.287738   2.812809 H        1 UNL1     0.0524
     122 H         -2.081832   6.031652   2.582264 H        1 UNL1     0.0524
     123 H         -1.268078   5.326881   4.001717 H        1 UNL1     0.0524
@<TRIPOS>BOND
     1     1     2    1
     2     1    42    1
     3     2     3    2
     4     3     4    1
     5     4     5    2
     6     5     7    1
     7     6    75    1
     8     6    76    1
     9     6    77    1
    10     7     9   am
    11     9    10    1
    12    10    11    2
    13    10    43    1
    14    11    14    1
    15    11    15    1
    16    12    13   ar
    17    12    27   ar
    18    12    43    1
    19    13    14    1
    20    13    30   ar
    21    14    17    2
    22    15    16    1
    23    16    17    1
    24    16    18    1
    25    16    22    1
    26    18    19    1
    27    19    20    1
    28    20    21    1
    29    21    22    1
    30    23    24    1
    31    23    88    1
    32    23    89    1
    33    24    25    1
    34    24    26    1
    35    24    90    1
    36    25    91    1
    37    25    92    1
    38    25    93    1
    39    26    94    1
    40    26    95    1
    41    26    96    1
    42    27    28   ar
    43    28    29   ar
    44    29    30   ar
    45    29    31    1
    46    30    33    1
    47    31    32    1
    48    32    33    1
    49    32    35    1
    50    34    97    1
    51    34    98    1
    52    34    99    1
    53    35    61    1
    54    36    37    1
    55    36    60    1
    56    37    38    1
    57    38    39    1
    58    39    40    1
    59    40    41    1
    60    41    42    1
    61    45   100    1
    62    47   101    1
    63    47   102    1
    64    47   103    1
    65    48   104    1
    66    49   105    1
    67    49   106    1
    68    49   107    1
    69    50   108    1
    70    51    59    1
    71    52   109    1
    72    52   110    1
    73    52   111    1
    74    53    54    1
    75    54    55    2
    76    54    56    1
    77    56   112    1
    78    56   113    1
    79    56   114    1
    80    57   115    1
    81    57   116    1
    82    57   117    1
    83    58   118    1
    84    58   119    1
    85    58   120    1
    86    59   121    1
    87    59   122    1
    88    59   123    1
    89    60    61    2
    90     1    47    1
    91     1    62    1
    92     2    63    1
    93     3    64    1
    94     4    65    1
    95     5     6    1
    96     7     8    2
    97     9    78    1
    98    15    79    1
    99    18    80    1
   100    18    81    1
   101    19    82    1
   102    19    83    1
   103    20    23    1
   104    21    84    1
   105    21    85    1
   106    22    86    1
   107    22    87    1
   108    27    45    1
   109    28    34    1
   110    32    58    1
   111    33    46    2
   112    36    51    1
   113    36    66    1
   114    37    52    1
   115    37    67    1
   116    38    53    1
   117    38    68    1
   118    42    48    1
   119    42    72    1
   120    43    44    2
   121    60    73    1
   122    61    74    1
   123    39    69    1
   124    39    57    1
   125    40    70    1
   126    40    50    1
   127    41    71    1
   128    41    49    1
