@<TRIPOS>MOLECULE
*****
 123 128 0 0 0
SMALL
GASTEIGER

@<TRIPOS>ATOM
     1 C         1.875482   3.729001   -0.007358 C.3        1 UNL1     0.0009
     2 C         1.214415   5.373581   -0.55085 C.2        1 UNL1     -0.0787
     3 C         1.006381   6.363654   -1.586477 C.2        1 UNL1     -0.0649
     4 C         0.120683   7.803108   -1.48712 C.2        1 UNL1     -0.0542
     5 C         -0.544406   8.810619   -2.228508 C.2        1 UNL1     0.0115
     6 C         -0.779302   9.370225   -3.658539 C.3        1 UNL1     -0.0348
     7 C         -1.600864   9.757956   -1.477883 C.2        1 UNL1     0.2441
     8 O         -1.341191   10.903014   -1.134463 O.2        1 UNL1     -0.2702
     9 N         -2.922591   9.279229   -1.474355 N.am        1 UNL1     -0.2772
     10 C         -3.133594   8.459703   -0.389378 C.2        1 UNL1     0.1049
     11 C         -2.748435   7.203726   -0.525016 C.2        1 UNL1     0.0801
     12 C         -2.818694   8.329028   2.088746 C.ar        1 UNL1     0.0753
     13 C         -2.214247   7.050938   1.865723 C.ar        1 UNL1     0.0305
     14 C         -2.279297   6.390455   0.563962 C.2        1 UNL1     0.0924
     15 N         -2.370579   6.530068   -1.624987 N.pl3        1 UNL1     -0.3170
     16 C         -2.217107   5.146324   -1.261733 C.3        1 UNL1     0.1275
     17 N         -1.867368   5.177545   0.206065 N.2        1 UNL1     -0.2557
     18 C         -3.595417   4.498813   -1.354971 C.3        1 UNL1     0.0016
     19 C         -4.14446   4.723201   -2.754896 C.3        1 UNL1     0.0026
     20 N         -3.223467   4.136029   -3.718239 N.3        1 UNL1     -0.3018
     21 C         -1.8541   4.651979   -3.663464 C.3        1 UNL1     0.0026
     22 C         -1.320676   4.412015   -2.250039 C.3        1 UNL1     0.0016
     23 C         -3.790532   4.029124   -5.047769 C.3        1 UNL1     0.0012
     24 C         -5.152917   4.737424   -5.110805 C.3        1 UNL1     -0.0339
     25 C         -5.214159   5.926379   -4.137823 C.3        1 UNL1     -0.0615
     26 C         -5.451457   5.166213   -6.536917 C.3        1 UNL1     -0.0615
     27 C         -2.857745   8.896998   3.359967 C.ar        1 UNL1     0.1347
     28 C         -2.362673   8.266544   4.487567 C.ar        1 UNL1     0.0342
     29 C         -1.728677   7.031249   4.236056 C.ar        1 UNL1     0.1435
     30 C         -1.649944   6.466637   2.962386 C.ar        1 UNL1     0.0774
     31 O         -1.293634   6.24423   5.244195 O.3        1 UNL1     -0.4436
     32 C         -1.165482   4.940489   4.657076 C.3        1 UNL1     0.3143
     33 C         -1.000317   5.189523   3.171507 C.2        1 UNL1     0.2504
     34 C         -2.591648   8.695972   5.909981 C.3        1 UNL1     -0.0327
     35 O         0.067746   4.381481   5.126023 O.2        1 UNL1     -0.4528
     36 C         -0.460541   0.623693   5.215631 C.3        1 UNL1     0.0854
     37 C         -0.881181   -0.351373   4.049513 C.3        1 UNL1     0.0236
     38 C         0.118104   -1.581236   3.80332 C.3        1 UNL1     0.1131
     39 C         1.668034   -1.312353   3.636929 C.3        1 UNL1     0.0200
     40 C         2.209663   -0.047843   2.693481 C.3        1 UNL1     0.0661
     41 C         1.711443   0.293632   1.108306 C.3        1 UNL1     0.0091
     42 C         1.541177   1.897269   0.2338 C.3        1 UNL1     0.0661
     43 C         -3.482106   8.989594   0.937313 C.2        1 UNL1     0.2131
     44 O         -4.34142   9.844231   1.055261 O.2        1 UNL1     -0.2851
     45 O         -3.423581   10.164311   3.483191 O.3        1 UNL1     -0.5056
     46 O         -0.439327   4.499829   2.349639 O.2        1 UNL1     -0.2836
     47 C         3.420486   3.78821   0.132062 C.3        1 UNL1     -0.0566
     48 O         2.252123   1.438469   -0.984057 O.3        1 UNL1     -0.3909
     49 C         0.465998   -0.508953   0.804632 C.3        1 UNL1     -0.0577
     50 O         2.277027   1.146305   3.446605 O.3        1 UNL1     -0.3910
     51 O         0.813575   0.400231   5.776097 O.3        1 UNL1     -0.3753
     52 C         -1.564295   0.413702   2.869273 C.3        1 UNL1     -0.0564
     53 O         -0.466646   -2.668668   2.950158 O.3        1 UNL1     -0.4608
     54 C         -0.676006   -3.963868   3.345829 C.2        1 UNL1     0.3042
     55 O         0.131061   -4.719682   3.885483 O.2        1 UNL1     -0.2512
     56 C         -2.082275   -4.441705   3.120453 C.3        1 UNL1     0.0332
     57 C         2.349858   -1.519165   5.068892 C.3        1 UNL1     -0.0567
     58 C         -2.512517   4.219176   4.895262 C.3        1 UNL1     0.0210
     59 C         1.856237   0.182601   4.826697 C.3        1 UNL1     0.0372
     60 C         -0.534519   2.07219   4.881648 C.2        1 UNL1     -0.0208
     61 C         0.328379   3.0601   5.122866 C.2        1 UNL1     0.0882
     62 H         1.463732   3.915247   0.991885 H        1 UNL1     0.0365
     63 H         0.850268   5.770614   0.399009 H        1 UNL1     0.0576
     64 H         1.287752   6.173826   -2.624698 H        1 UNL1     0.0615
     65 H         -0.037924   7.937943   -0.41374 H        1 UNL1     0.0622
     66 H         -1.212239   0.456521   5.999882 H        1 UNL1     0.0645
     67 H         -1.77382   -0.868989   4.441724 H        1 UNL1     0.0362
     68 H         0.013829   -2.099113   4.768956 H        1 UNL1     0.0741
     69 H         2.12166   -2.172785   3.163339 H        1 UNL1     0.0359
     70 H         3.265953   -0.349582   2.558331 H        1 UNL1     0.0600
     71 H         2.476846   -0.269908   0.539501 H        1 UNL1     0.0348
     72 H         2.205789   2.087326   1.089069 H        1 UNL1     0.0602
     73 H         -1.497228   2.291945   4.491588 H        1 UNL1     0.0628
     74 H         1.352909   2.91377   5.466615 H        1 UNL1     0.1022
     75 H         -1.866746   9.553952   -3.833879 H        1 UNL1     0.0279
     76 H         -0.339408   10.340451   -3.878139 H        1 UNL1     0.0279
     77 H         -0.554017   8.635238   -4.445141 H        1 UNL1     0.0279
     78 H         -3.088346   8.726302   -2.312731 H        1 UNL1     0.1553
     79 H         -2.582639   6.826465   -2.559927 H        1 UNL1     0.1484
     80 H         -3.504443   3.429928   -1.12699 H        1 UNL1     0.0317
     81 H         -4.277497   4.92138   -0.609413 H        1 UNL1     0.0317
     82 H         -4.306459   5.791206   -2.962341 H        1 UNL1     0.0428
     83 H         -5.128348   4.255144   -2.7989 H        1 UNL1     0.0428
     84 H         -1.164685   4.13911   -4.341316 H        1 UNL1     0.0428
     85 H         -1.801017   5.704349   -3.974939 H        1 UNL1     0.0428
     86 H         -0.280395   4.677793   -2.284157 H        1 UNL1     0.0317
     87 H         -1.300961   3.336722   -2.034509 H        1 UNL1     0.0317
     88 H         -3.107198   4.522594   -5.751215 H        1 UNL1     0.0429
     89 H         -3.874251   2.980923   -5.362477 H        1 UNL1     0.0429
     90 H         -5.94117   4.024579   -4.841135 H        1 UNL1     0.0308
     91 H         -6.100968   5.87247   -3.499258 H        1 UNL1     0.0233
     92 H         -4.32104   5.957626   -3.509355 H        1 UNL1     0.0233
     93 H         -5.25539   6.890625   -4.65875 H        1 UNL1     0.0233
     94 H         -6.407881   4.745347   -6.865492 H        1 UNL1     0.0233
     95 H         -5.526093   6.255894   -6.59158 H        1 UNL1     0.0233
     96 H         -4.671348   4.830815   -7.226051 H        1 UNL1     0.0233
     97 H         -3.604503   8.486462   6.240829 H        1 UNL1     0.0280
     98 H         -1.931355   8.170566   6.612276 H        1 UNL1     0.0280
     99 H         -2.415743   9.78035   6.00097 H        1 UNL1     0.0280
     100 H         -2.852339   10.873039   3.244425 H        1 UNL1     0.2922
     101 H         3.686661   4.119368   1.135627 H        1 UNL1     0.0236
     102 H         3.897512   4.393246   -0.638237 H        1 UNL1     0.0236
     103 H         3.883625   2.792179   0.033991 H        1 UNL1     0.0236
     104 H         1.98691   0.512533   -1.149209 H        1 UNL1     0.2098
     105 H         0.656707   -1.530733   0.486189 H        1 UNL1     0.0234
     106 H         -0.288982   -0.492878   1.590554 H        1 UNL1     0.0234
     107 H         -0.0   0.0   0.0 H        1 UNL1     0.0234
     108 H         2.263092   1.889756   2.813475 H        1 UNL1     0.2098
     109 H         -1.030545   1.338293   2.608595 H        1 UNL1     0.0234
     110 H         -1.689681   -0.202319   1.972311 H        1 UNL1     0.0234
     111 H         -2.586577   0.722672   3.125052 H        1 UNL1     0.0234
     112 H         -2.744139   -3.586078   2.955577 H        1 UNL1     0.0342
     113 H         -2.146891   -5.150214   2.296024 H        1 UNL1     0.0342
     114 H         -2.419209   -4.957758   4.030029 H        1 UNL1     0.0342
     115 H         1.646699   -1.318234   5.888882 H        1 UNL1     0.0234
     116 H         2.759569   -2.519032   5.225263 H        1 UNL1     0.0234
     117 H         3.146227   -0.786879   5.286826 H        1 UNL1     0.0234
     118 H         -2.380515   3.133319   5.045248 H        1 UNL1     0.0309
     119 H         -3.077339   4.631025   5.737615 H        1 UNL1     0.0309
     120 H         -3.178537   4.27512   4.02728 H        1 UNL1     0.0309
     121 H         2.227078   1.158576   4.514756 H        1 UNL1     0.0524
     122 H         2.705586   -0.372891   5.258058 H        1 UNL1     0.0524
     123 H         1.475565   -0.365269   3.969363 H        1 UNL1     0.0524
@<TRIPOS>BOND
     1     1     2    1
     2     1    42    1
     3     2     3    2
     4     3     4    1
     5     4     5    2
     6     5     7    1
     7     6    75    1
     8     6    76    1
     9     6    77    1
    10     7     9   am
    11     9    10    1
    12    10    11    2
    13    10    43    1
    14    11    14    1
    15    11    15    1
    16    12    13   ar
    17    12    27   ar
    18    12    43    1
    19    13    14    1
    20    13    30   ar
    21    14    17    2
    22    15    16    1
    23    16    17    1
    24    16    18    1
    25    16    22    1
    26    18    19    1
    27    19    20    1
    28    20    21    1
    29    21    22    1
    30    23    24    1
    31    23    88    1
    32    23    89    1
    33    24    25    1
    34    24    26    1
    35    24    90    1
    36    25    91    1
    37    25    92    1
    38    25    93    1
    39    26    94    1
    40    26    95    1
    41    26    96    1
    42    27    28   ar
    43    28    29   ar
    44    29    30   ar
    45    29    31    1
    46    30    33    1
    47    31    32    1
    48    32    33    1
    49    32    35    1
    50    34    97    1
    51    34    98    1
    52    34    99    1
    53    35    61    1
    54    36    37    1
    55    36    60    1
    56    37    38    1
    57    38    39    1
    58    39    40    1
    59    40    41    1
    60    41    42    1
    61    45   100    1
    62    47   101    1
    63    47   102    1
    64    47   103    1
    65    48   104    1
    66    49   105    1
    67    49   106    1
    68    49   107    1
    69    50   108    1
    70    51    59    1
    71    52   109    1
    72    52   110    1
    73    52   111    1
    74    53    54    1
    75    54    55    2
    76    54    56    1
    77    56   112    1
    78    56   113    1
    79    56   114    1
    80    57   115    1
    81    57   116    1
    82    57   117    1
    83    58   118    1
    84    58   119    1
    85    58   120    1
    86    59   121    1
    87    59   122    1
    88    59   123    1
    89    60    61    2
    90     1    47    1
    91     1    62    1
    92     2    63    1
    93     3    64    1
    94     4    65    1
    95     5     6    1
    96     7     8    2
    97     9    78    1
    98    15    79    1
    99    18    80    1
   100    18    81    1
   101    19    82    1
   102    19    83    1
   103    20    23    1
   104    21    84    1
   105    21    85    1
   106    22    86    1
   107    22    87    1
   108    27    45    1
   109    28    34    1
   110    32    58    1
   111    33    46    2
   112    36    51    1
   113    36    66    1
   114    37    52    1
   115    37    67    1
   116    38    53    1
   117    38    68    1
   118    42    48    1
   119    42    72    1
   120    43    44    2
   121    60    73    1
   122    61    74    1
   123    39    69    1
   124    39    57    1
   125    40    70    1
   126    40    50    1
   127    41    71    1
   128    41    49    1
