@<TRIPOS>MOLECULE
*****
 123 128 0 0 0
SMALL
GASTEIGER

@<TRIPOS>ATOM
     1 C         4.909465   2.175141   -0.742235 C.3        1 UNL1     0.0009
     2 C         5.878295   3.34724   -1.802702 C.2        1 UNL1     -0.0787
     3 C         6.894473   3.58645   -2.8058 C.2        1 UNL1     -0.0649
     4 C         7.301889   5.054111   -3.544947 C.2        1 UNL1     -0.0542
     5 C         7.929494   5.655917   -4.663437 C.2        1 UNL1     0.0115
     6 C         8.819579   5.376987   -5.905721 C.3        1 UNL1     -0.0348
     7 C         7.609875   7.19267   -4.999922 C.2        1 UNL1     0.2441
     8 O         8.375967   8.106724   -4.727645 O.2        1 UNL1     -0.2702
     9 N         6.515308   7.392128   -5.85916 N.am        1 UNL1     -0.2772
     10 C         5.347162   7.477112   -5.136986 C.2        1 UNL1     0.1049
     11 C         4.787904   6.329817   -4.797624 C.2        1 UNL1     0.0801
     12 C         4.31585   8.609106   -3.159028 C.ar        1 UNL1     0.0753
     13 C         3.909309   7.307297   -2.724718 C.ar        1 UNL1     0.0305
     14 C         4.018733   6.140641   -3.597639 C.2        1 UNL1     0.0924
     15 N         5.054947   5.08116   -5.217234 N.pl3        1 UNL1     -0.3170
     16 C         4.047704   4.209799   -4.672767 C.3        1 UNL1     0.1275
     17 N         3.605152   4.891909   -3.401312 N.2        1 UNL1     -0.2557
     18 C         2.850522   4.256812   -5.617356 C.3        1 UNL1     0.0016
     19 C         3.318072   3.880185   -7.014187 C.3        1 UNL1     0.0026
     20 N         3.897902   2.544968   -6.969237 N.3        1 UNL1     -0.3018
     21 C         5.018792   2.38485   -6.040617 C.3        1 UNL1     0.0026
     22 C         4.52551   2.763986   -4.643182 C.3        1 UNL1     0.0016
     23 C         4.099903   1.973263   -8.285668 C.3        1 UNL1     0.0012
     24 C         3.936505   3.049024   -9.37093 C.3        1 UNL1     -0.0339
     25 C         3.636134   4.426256   -8.756872 C.3        1 UNL1     -0.0615
     26 C         5.170733   3.088396   -10.255187 C.3        1 UNL1     -0.0615
     27 C         4.097334   9.734713   -2.368219 C.ar        1 UNL1     0.1347
     28 C         3.448794   9.689009   -1.147007 C.ar        1 UNL1     0.0342
     29 C         3.101248   8.390534   -0.717661 C.ar        1 UNL1     0.1435
     30 C         3.346276   7.249641   -1.482871 C.ar        1 UNL1     0.0774
     31 O         2.366632   8.190271   0.398243 O.3        1 UNL1     -0.4436
     32 C         1.830678   6.867112   0.246995 C.3        1 UNL1     0.3143
     33 C         2.770213   6.166545   -0.713572 C.2        1 UNL1     0.2504
     34 C         2.957512   10.875042   -0.36466 C.3        1 UNL1     -0.0327
     35 O         1.960176   6.207824   1.512626 O.2        1 UNL1     -0.4528
     36 C         -0.918356   3.740644   1.700153 C.3        1 UNL1     0.0854
     37 C         -1.289735   2.566221   0.715099 C.3        1 UNL1     0.0236
     38 C         -1.423047   1.123745   1.403021 C.3        1 UNL1     0.1131
     39 C         -0.262618   0.588148   2.335121 C.3        1 UNL1     0.0200
     40 C         1.333511   0.767924   1.885133 C.3        1 UNL1     0.0661
     41 C         1.993763   0.354056   0.378352 C.3        1 UNL1     0.0091
     42 C         3.371744   1.112379   -0.565852 C.3        1 UNL1     0.0661
     43 C         4.897343   8.733196   -4.518708 C.2        1 UNL1     0.2131
     44 O         4.91799   9.774589   -5.149431 O.2        1 UNL1     -0.2851
     45 O         4.564519   10.958079   -2.844191 O.3        1 UNL1     -0.5056
     46 O         3.006773   4.982887   -0.807632 O.2        1 UNL1     -0.2836
     47 C         5.786797   1.656482   0.428775 C.3        1 UNL1     -0.0566
     48 O         4.03126   -0.182059   -0.863484 O.3        1 UNL1     -0.3909
     49 C         0.865357   0.118108   -0.600689 C.3        1 UNL1     -0.0577
     50 O         1.834199   2.021498   2.304165 O.3        1 UNL1     -0.3910
     51 O         -0.580745   3.358757   3.014539 O.3        1 UNL1     -0.3753
     52 C         -0.636275   2.758719   -0.692339 C.3        1 UNL1     -0.0564
     53 O         -2.108082   0.106724   0.537734 O.3        1 UNL1     -0.4608
     54 C         -2.520877   -1.134953   0.94488 C.2        1 UNL1     0.3042
     55 O         -1.91411   -1.923691   1.668458 O.2        1 UNL1     -0.2512
     56 C         -3.899009   -1.49663   0.468795 C.3        1 UNL1     0.0332
     57 C         -0.655483   0.940271   3.845036 C.3        1 UNL1     -0.0567
     58 C         0.451329   7.029009   -0.433238 C.3        1 UNL1     0.0210
     59 C         -1.56449   2.568417   3.680477 C.3        1 UNL1     0.0372
     60 C         0.165519   4.642324   1.223342 C.2        1 UNL1     -0.0208
     61 C         1.22403   5.136919   1.866518 C.2        1 UNL1     0.0882
     62 H         4.340341   3.027955   -0.352983 H        1 UNL1     0.0365
     63 H         5.501287   4.306733   -1.442551 H        1 UNL1     0.0576
     64 H         7.402889   2.763529   -3.313168 H        1 UNL1     0.0615
     65 H         6.812045   5.805567   -2.919767 H        1 UNL1     0.0622
     66 H         -1.825851   4.358947   1.747061 H        1 UNL1     0.0645
     67 H         -2.337045   2.773025   0.434148 H        1 UNL1     0.0362
     68 H         -2.271618   1.318795   2.076375 H        1 UNL1     0.0741
     69 H         -0.361986   -0.484676   2.433011 H        1 UNL1     0.0359
     70 H         1.807754   0.038088   2.568868 H        1 UNL1     0.0600
     71 H         2.319358   -0.683637   0.588442 H        1 UNL1     0.0348
     72 H         3.498274   1.444575   0.474797 H        1 UNL1     0.0602
     73 H         -0.070503   4.986224   0.246984 H        1 UNL1     0.0628
     74 H         1.566589   4.795555   2.843944 H        1 UNL1     0.1022
     75 H         9.197487   4.326297   -5.889262 H        1 UNL1     0.0279
     76 H         8.330746   5.434949   -6.875644 H        1 UNL1     0.0279
     77 H         9.760634   5.946109   -5.891047 H        1 UNL1     0.0279
     78 H         6.427689   6.599101   -6.491227 H        1 UNL1     0.1553
     79 H         5.556006   4.872405   -6.061209 H        1 UNL1     0.1484
     80 H         2.080318   3.566294   -5.253026 H        1 UNL1     0.0317
     81 H         2.39823   5.254308   -5.626476 H        1 UNL1     0.0317
     82 H         4.036932   4.610644   -7.413667 H        1 UNL1     0.0428
     83 H         2.449293   3.921846   -7.671863 H        1 UNL1     0.0428
     84 H         5.383781   1.355692   -5.966937 H        1 UNL1     0.0428
     85 H         5.899847   2.958128   -6.360634 H        1 UNL1     0.0428
     86 H         5.326525   2.509058   -3.974321 H        1 UNL1     0.0317
     87 H         3.715104   2.091417   -4.336606 H        1 UNL1     0.0317
     88 H         5.124045   1.580726   -8.334064 H        1 UNL1     0.0429
     89 H         3.422681   1.127513   -8.461315 H        1 UNL1     0.0429
     90 H         3.104955   2.771466   -10.029489 H        1 UNL1     0.0308
     91 H         4.513155   5.079224   -8.796494 H        1 UNL1     0.0233
     92 H         2.805924   4.908782   -9.277955 H        1 UNL1     0.0233
     93 H         3.337769   4.357857   -7.703717 H        1 UNL1     0.0233
     94 H         5.152464   3.9811   -10.88968 H        1 UNL1     0.0233
     95 H         6.071888   3.132446   -9.637172 H        1 UNL1     0.0233
     96 H         5.227788   2.207102   -10.900195 H        1 UNL1     0.0233
     97 H         2.735338   10.618972   0.666988 H        1 UNL1     0.0280
     98 H         3.703266   11.679515   -0.320713 H        1 UNL1     0.0280
     99 H         2.038214   11.26819   -0.828794 H        1 UNL1     0.0280
     100 H         4.795084   10.960974   -3.756581 H        1 UNL1     0.2922
     101 H         6.503899   0.925778   0.055288 H        1 UNL1     0.0236
     102 H         5.202849   1.267389   1.262198 H        1 UNL1     0.0236
     103 H         6.40562   2.45643   0.868473 H        1 UNL1     0.0236
     104 H         3.889952   -0.768703   -0.094815 H        1 UNL1     0.2098
     105 H         0.685017   0.94299   -1.285423 H        1 UNL1     0.0234
     106 H         0.927525   -0.821597   -1.149338 H        1 UNL1     0.0234
     107 H         0.0   -0.0   0.0 H        1 UNL1     0.0234
     108 H         2.471178   1.853194   3.025067 H        1 UNL1     0.2098
     109 H         -0.362049   1.801828   -1.158034 H        1 UNL1     0.0234
     110 H         -1.261644   3.335911   -1.381908 H        1 UNL1     0.0234
     111 H         0.295292   3.336899   -0.630382 H        1 UNL1     0.0234
     112 H         -4.648165   -1.094341   1.157471 H        1 UNL1     0.0342
     113 H         -4.082553   -1.157667   -0.549664 H        1 UNL1     0.0342
     114 H         -3.988218   -2.591687   0.476327 H        1 UNL1     0.0342
     115 H         0.103091   0.587503   4.557291 H        1 UNL1     0.0234
     116 H         -0.806672   2.006072   4.027406 H        1 UNL1     0.0234
     117 H         -1.550445   0.403118   4.203437 H        1 UNL1     0.0234
     118 H         0.344137   8.011958   -0.924489 H        1 UNL1     0.0309
     119 H         0.235631   6.239777   -1.160417 H        1 UNL1     0.0309
     120 H         -0.375844   7.014005   0.28486 H        1 UNL1     0.0309
     121 H         -1.118665   2.194599   4.601812 H        1 UNL1     0.0524
     122 H         -2.455719   3.155815   3.957446 H        1 UNL1     0.0524
     123 H         -1.87094   1.739277   3.049043 H        1 UNL1     0.0524
@<TRIPOS>BOND
     1     1     2    1
     2     1    42    1
     3     2     3    2
     4     3     4    1
     5     4     5    2
     6     5     7    1
     7     6    75    1
     8     6    76    1
     9     6    77    1
    10     7     9   am
    11     9    10    1
    12    10    11    2
    13    10    43    1
    14    11    14    1
    15    11    15    1
    16    12    13   ar
    17    12    27   ar
    18    12    43    1
    19    13    14    1
    20    13    30   ar
    21    14    17    2
    22    15    16    1
    23    16    17    1
    24    16    18    1
    25    16    22    1
    26    18    19    1
    27    19    20    1
    28    20    21    1
    29    21    22    1
    30    23    24    1
    31    23    88    1
    32    23    89    1
    33    24    25    1
    34    24    26    1
    35    24    90    1
    36    25    91    1
    37    25    92    1
    38    25    93    1
    39    26    94    1
    40    26    95    1
    41    26    96    1
    42    27    28   ar
    43    28    29   ar
    44    29    30   ar
    45    29    31    1
    46    30    33    1
    47    31    32    1
    48    32    33    1
    49    32    35    1
    50    34    97    1
    51    34    98    1
    52    34    99    1
    53    35    61    1
    54    36    37    1
    55    36    60    1
    56    37    38    1
    57    38    39    1
    58    39    40    1
    59    40    41    1
    60    41    42    1
    61    45   100    1
    62    47   101    1
    63    47   102    1
    64    47   103    1
    65    48   104    1
    66    49   105    1
    67    49   106    1
    68    49   107    1
    69    50   108    1
    70    51    59    1
    71    52   109    1
    72    52   110    1
    73    52   111    1
    74    53    54    1
    75    54    55    2
    76    54    56    1
    77    56   112    1
    78    56   113    1
    79    56   114    1
    80    57   115    1
    81    57   116    1
    82    57   117    1
    83    58   118    1
    84    58   119    1
    85    58   120    1
    86    59   121    1
    87    59   122    1
    88    59   123    1
    89    60    61    2
    90     1    47    1
    91     1    62    1
    92     2    63    1
    93     3    64    1
    94     4    65    1
    95     5     6    1
    96     7     8    2
    97     9    78    1
    98    15    79    1
    99    18    80    1
   100    18    81    1
   101    19    82    1
   102    19    83    1
   103    20    23    1
   104    21    84    1
   105    21    85    1
   106    22    86    1
   107    22    87    1
   108    27    45    1
   109    28    34    1
   110    32    58    1
   111    33    46    2
   112    36    51    1
   113    36    66    1
   114    37    52    1
   115    37    67    1
   116    38    53    1
   117    38    68    1
   118    42    48    1
   119    42    72    1
   120    43    44    2
   121    60    73    1
   122    61    74    1
   123    39    69    1
   124    39    57    1
   125    40    70    1
   126    40    50    1
   127    41    71    1
   128    41    49    1
