@<TRIPOS>MOLECULE
*****
 123 128 0 0 0
SMALL
GASTEIGER

@<TRIPOS>ATOM
     1 C         4.987424   2.203258   0.530418 C.3        1 UNL1     0.0009
     2 C         6.386273   3.060604   -0.332841 C.2        1 UNL1     -0.0787
     3 C         7.700251   3.021981   -0.939483 C.2        1 UNL1     -0.0649
     4 C         8.501505   4.263184   -1.766383 C.2        1 UNL1     -0.0542
     5 C         9.533547   4.566416   -2.688347 C.2        1 UNL1     0.0115
     6 C         10.748632   3.974131   -3.453913 C.3        1 UNL1     -0.0348
     7 C         9.528448   5.9966   -3.417413 C.2        1 UNL1     0.2441
     8 O         10.261275   6.916993   -3.082199 O.2        1 UNL1     -0.2702
     9 N         8.816198   6.037685   -4.628678 N.am        1 UNL1     -0.2772
     10 C         7.492371   6.333269   -4.397519 C.2        1 UNL1     0.1049
     11 C         6.720717   5.318027   -4.053925 C.2        1 UNL1     0.0801
     12 C         5.999551   7.929651   -3.180808 C.ar        1 UNL1     0.0753
     13 C         5.320688   6.779757   -2.665543 C.ar        1 UNL1     0.0305
     14 C         5.577672   5.440493   -3.190313 C.2        1 UNL1     0.0924
     15 N         6.963676   3.996656   -4.092339 N.pl3        1 UNL1     -0.3170
     16 C         5.737058   3.314931   -3.774669 C.3        1 UNL1     0.1275
     17 N         4.978134   4.287896   -2.905706 N.2        1 UNL1     -0.2557
     18 C         4.939473   3.192333   -5.069478 C.3        1 UNL1     0.0016
     19 C         5.799731   2.486666   -6.105615 C.3        1 UNL1     0.0026
     20 N         6.169435   1.175058   -5.591774 N.3        1 UNL1     -0.3018
     21 C         6.88771   1.187086   -4.315724 C.3        1 UNL1     0.0026
     22 C         6.003487   1.896372   -3.288611 C.3        1 UNL1     0.0016
     23 C         6.731525   0.308868   -6.608835 C.3        1 UNL1     0.0012
     24 C         5.646628   -0.123499   -7.60774 C.3        1 UNL1     -0.0339
     25 C         5.892198   -1.551739   -8.121435 C.3        1 UNL1     -0.0615
     26 C         4.272298   0.014829   -6.976184 C.3        1 UNL1     -0.0615
     27 C         5.66322   9.214566   -2.761293 C.ar        1 UNL1     0.1347
     28 C         4.642758   9.476548   -1.86459 C.ar        1 UNL1     0.0342
     29 C         4.021106   8.326372   -1.333736 C.ar        1 UNL1     0.1435
     30 C         4.371854   7.031393   -1.717435 C.ar        1 UNL1     0.0774
     31 O         2.937203   8.417367   -0.532561 O.3        1 UNL1     -0.4436
     32 C         2.330817   7.11759   -0.593807 C.3        1 UNL1     0.3143
     33 C         3.448156   6.17791   -0.99972 C.2        1 UNL1     0.2504
     34 C         4.061364   10.829316   -1.561111 C.3        1 UNL1     -0.0327
     35 O         1.95059   6.761601   0.741091 O.2        1 UNL1     -0.4528
     36 C         -1.094141   4.521749   0.393576 C.3        1 UNL1     0.0854
     37 C         -1.250059   3.168647   -0.401613 C.3        1 UNL1     0.0236
     38 C         -1.774932   1.929098   0.470035 C.3        1 UNL1     0.1131
     39 C         -1.065105   1.575179   1.838668 C.3        1 UNL1     0.0200
     40 C         0.598956   1.582213   1.953943 C.3        1 UNL1     0.0661
     41 C         1.671788   0.807311   0.892733 C.3        1 UNL1     0.0091
     42 C         3.365489   1.272397   0.363131 C.3        1 UNL1     0.0661
     43 C         7.01291   7.714839   -4.243455 C.2        1 UNL1     0.2131
     44 O         7.366039   8.582022   -5.021934 O.2        1 UNL1     -0.2851
     45 O         6.40348   10.276165   -3.277491 O.3        1 UNL1     -0.5056
     46 O         3.561315   4.995677   -0.764403 O.2        1 UNL1     -0.2836
     47 C         5.354609   1.932076   2.014203 C.3        1 UNL1     -0.0566
     48 O         3.929161   -0.08138   0.583759 O.3        1 UNL1     -0.3909
     49 C         0.916688   0.398851   -0.352449 C.3        1 UNL1     -0.0577
     50 O         1.074542   2.877188   2.261486 O.3        1 UNL1     -0.3910
     51 O         -1.263426   4.438298   1.790648 O.3        1 UNL1     -0.3753
     52 C         -0.145368   3.006492   -1.496289 C.3        1 UNL1     -0.0564
     53 O         -2.245632   0.76923   -0.357899 O.3        1 UNL1     -0.4608
     54 C         -2.070235   -0.553553   -0.045795 C.2        1 UNL1     0.3042
     55 O         -1.237067   -1.327611   -0.515375 O.2        1 UNL1     -0.2512
     56 C         -2.989977   -1.043216   1.036341 C.3        1 UNL1     0.0332
     57 C         -1.896275   2.279942   3.009412 C.3        1 UNL1     -0.0567
     58 C         1.287978   7.174736   -1.734311 C.3        1 UNL1     0.0210
     59 C         -2.474461   5.010094   2.282896 C.3        1 UNL1     0.0372
     60 C         0.185051   5.245383   0.158664 C.2        1 UNL1     -0.0208
     61 C         1.017698   5.831135   1.020255 C.2        1 UNL1     0.0882
     62 H         4.425553   3.144931   0.514151 H        1 UNL1     0.0365
     63 H         6.026329   4.091573   -0.32942 H        1 UNL1     0.0576
     64 H         8.24842   2.084732   -1.05858 H        1 UNL1     0.0615
     65 H         7.922845   5.157215   -1.518701 H        1 UNL1     0.0622
     66 H         -1.885418   5.170499   -0.007734 H        1 UNL1     0.0645
     67 H         -2.110813   3.34765   -1.069161 H        1 UNL1     0.0362
     68 H         -2.770669   2.307594   0.747112 H        1 UNL1     0.0741
     69 H         -1.317199   0.558357   2.108722 H        1 UNL1     0.0359
     70 H         0.727485   1.010163   2.892718 H        1 UNL1     0.0600
     71 H         1.783591   -0.166789   1.408084 H        1 UNL1     0.0348
     72 H         3.17463   1.829107   1.292089 H        1 UNL1     0.0602
     73 H         0.3317   5.365342   -0.886014 H        1 UNL1     0.0628
     74 H         0.970595   5.709577   2.102956 H        1 UNL1     0.1022
     75 H         11.401385   3.389899   -2.761366 H        1 UNL1     0.0279
     76 H         10.52457   3.248512   -4.232592 H        1 UNL1     0.0279
     77 H         11.445892   4.747352   -3.808397 H        1 UNL1     0.0279
     78 H         8.852376   5.124999   -5.077871 H        1 UNL1     0.1553
     79 H         7.690006   3.579736   -4.645109 H        1 UNL1     0.1484
     80 H         4.016072   2.635557   -4.86923 H        1 UNL1     0.0317
     81 H         4.637215   4.178577   -5.437735 H        1 UNL1     0.0317
     82 H         6.6916   3.076294   -6.364115 H        1 UNL1     0.0428
     83 H         5.212518   2.411414   -7.021348 H        1 UNL1     0.0428
     84 H         7.083005   0.188395   -3.912875 H        1 UNL1     0.0428
     85 H         7.8861   1.635532   -4.41283 H        1 UNL1     0.0428
     86 H         6.498469   1.769533   -2.343681 H        1 UNL1     0.0317
     87 H         5.063946   1.345426   -3.158928 H        1 UNL1     0.0317
     88 H         7.500971   0.873654   -7.151296 H        1 UNL1     0.0429
     89 H         7.227455   -0.56206   -6.16127 H        1 UNL1     0.0429
     90 H         5.653143   0.56146   -8.463895 H        1 UNL1     0.0308
     91 H         6.13387   -2.233586   -7.300594 H        1 UNL1     0.0233
     92 H         5.014719   -1.927261   -8.653058 H        1 UNL1     0.0233
     93 H         6.725469   -1.602221   -8.832734 H        1 UNL1     0.0233
     94 H         3.552203   -0.627875   -7.494095 H        1 UNL1     0.0233
     95 H         4.30949   -0.296543   -5.928507 H        1 UNL1     0.0233
     96 H         3.912566   1.046405   -7.02529 H        1 UNL1     0.0233
     97 H         3.010381   10.890196   -1.827491 H        1 UNL1     0.0280
     98 H         4.114951   11.07237   -0.491855 H        1 UNL1     0.0280
     99 H         4.606893   11.601155   -2.128348 H        1 UNL1     0.0280
     100 H         7.336461   10.162376   -3.230376 H        1 UNL1     0.2922
     101 H         4.830727   2.638609   2.657643 H        1 UNL1     0.0236
     102 H         6.428694   1.9314   2.196753 H        1 UNL1     0.0236
     103 H         5.011711   0.939491   2.350936 H        1 UNL1     0.0236
     104 H         4.239384   -0.124448   1.509436 H        1 UNL1     0.2098
     105 H         0.685092   1.219542   -1.02672 H        1 UNL1     0.0234
     106 H         1.361977   -0.429052   -0.90401 H        1 UNL1     0.0234
     107 H         0.0   -0.0   0.0 H        1 UNL1     0.0234
     108 H         0.354447   3.348692   2.722914 H        1 UNL1     0.2098
     109 H         -0.300739   3.68387   -2.3476 H        1 UNL1     0.0234
     110 H         0.869787   3.135687   -1.10576 H        1 UNL1     0.0234
     111 H         -0.140769   1.99324   -1.919661 H        1 UNL1     0.0234
     112 H         -2.784556   -2.096332   1.251037 H        1 UNL1     0.0342
     113 H         -2.917919   -0.439077   1.939484 H        1 UNL1     0.0342
     114 H         -4.022578   -0.969755   0.668232 H        1 UNL1     0.0342
     115 H         -1.867373   1.695784   3.939526 H        1 UNL1     0.0234
     116 H         -1.559591   3.291195   3.246186 H        1 UNL1     0.0234
     117 H         -2.982092   2.319048   2.81599 H        1 UNL1     0.0234
     118 H         0.252969   7.132831   -1.352203 H        1 UNL1     0.0309
     119 H         1.398325   8.056417   -2.373581 H        1 UNL1     0.0309
     120 H         1.34634   6.307504   -2.401101 H        1 UNL1     0.0309
     121 H         -2.302799   5.305641   3.317565 H        1 UNL1     0.0524
     122 H         -2.767817   5.914142   1.72372 H        1 UNL1     0.0524
     123 H         -3.281512   4.284919   2.229183 H        1 UNL1     0.0524
@<TRIPOS>BOND
     1     1     2    1
     2     1    42    1
     3     2     3    2
     4     3     4    1
     5     4     5    2
     6     5     7    1
     7     6    75    1
     8     6    76    1
     9     6    77    1
    10     7     9   am
    11     9    10    1
    12    10    11    2
    13    10    43    1
    14    11    14    1
    15    11    15    1
    16    12    13   ar
    17    12    27   ar
    18    12    43    1
    19    13    14    1
    20    13    30   ar
    21    14    17    2
    22    15    16    1
    23    16    17    1
    24    16    18    1
    25    16    22    1
    26    18    19    1
    27    19    20    1
    28    20    21    1
    29    21    22    1
    30    23    24    1
    31    23    88    1
    32    23    89    1
    33    24    25    1
    34    24    26    1
    35    24    90    1
    36    25    91    1
    37    25    92    1
    38    25    93    1
    39    26    94    1
    40    26    95    1
    41    26    96    1
    42    27    28   ar
    43    28    29   ar
    44    29    30   ar
    45    29    31    1
    46    30    33    1
    47    31    32    1
    48    32    33    1
    49    32    35    1
    50    34    97    1
    51    34    98    1
    52    34    99    1
    53    35    61    1
    54    36    37    1
    55    36    60    1
    56    37    38    1
    57    38    39    1
    58    39    40    1
    59    40    41    1
    60    41    42    1
    61    45   100    1
    62    47   101    1
    63    47   102    1
    64    47   103    1
    65    48   104    1
    66    49   105    1
    67    49   106    1
    68    49   107    1
    69    50   108    1
    70    51    59    1
    71    52   109    1
    72    52   110    1
    73    52   111    1
    74    53    54    1
    75    54    55    2
    76    54    56    1
    77    56   112    1
    78    56   113    1
    79    56   114    1
    80    57   115    1
    81    57   116    1
    82    57   117    1
    83    58   118    1
    84    58   119    1
    85    58   120    1
    86    59   121    1
    87    59   122    1
    88    59   123    1
    89    60    61    2
    90     1    47    1
    91     1    62    1
    92     2    63    1
    93     3    64    1
    94     4    65    1
    95     5     6    1
    96     7     8    2
    97     9    78    1
    98    15    79    1
    99    18    80    1
   100    18    81    1
   101    19    82    1
   102    19    83    1
   103    20    23    1
   104    21    84    1
   105    21    85    1
   106    22    86    1
   107    22    87    1
   108    27    45    1
   109    28    34    1
   110    32    58    1
   111    33    46    2
   112    36    51    1
   113    36    66    1
   114    37    52    1
   115    37    67    1
   116    38    53    1
   117    38    68    1
   118    42    48    1
   119    42    72    1
   120    43    44    2
   121    60    73    1
   122    61    74    1
   123    39    69    1
   124    39    57    1
   125    40    70    1
   126    40    50    1
   127    41    71    1
   128    41    49    1
