@<TRIPOS>MOLECULE
*****
 123 128 0 0 0
SMALL
GASTEIGER

@<TRIPOS>ATOM
     1 C         1.387261   1.726306   4.968883 C.3        1 UNL1     0.0009
     2 C         0.826777   2.578875   6.516792 C.2        1 UNL1     -0.0787
     3 C         0.709087   3.779462   7.317284 C.2        1 UNL1     -0.0649
     4 C         -0.112455   3.975415   8.784604 C.2        1 UNL1     -0.0542
     5 C         -0.698016   4.912462   9.671248 C.2        1 UNL1     0.0115
     6 C         -0.845645   6.42775   9.980166 C.3        1 UNL1     -0.0348
     7 C         -1.740495   4.3911   10.775064 C.2        1 UNL1     0.2441
     8 O         -1.442955   4.238711   11.951828 O.2        1 UNL1     -0.2702
     9 N         -3.081915   4.370783   10.355145 N.am        1 UNL1     -0.2772
     10 C         -3.376641   3.172157   9.747071 C.2        1 UNL1     0.1049
     11 C         -3.044608   3.06871   8.472992 C.2        1 UNL1     0.0801
     12 C         -3.173943   0.696271   10.040729 C.ar        1 UNL1     0.0753
     13 C         -2.620359   0.663978   8.721218 C.ar        1 UNL1     0.0305
     14 C         -2.66042   1.833221   7.845822 C.2        1 UNL1     0.0924
     15 N         -2.651842   4.01504   7.603095 N.pl3        1 UNL1     -0.3170
     16 C         -2.578198   3.410327   6.29958 C.3        1 UNL1     0.1275
     17 N         -2.290212   1.954511   6.574146 N.2        1 UNL1     -0.2557
     18 C         -3.979782   3.458776   5.698816 C.3        1 UNL1     0.0016
     19 C         -4.457735   4.902084   5.695212 C.3        1 UNL1     0.0026
     20 N         -3.524722   5.70185   4.913617 N.3        1 UNL1     -0.3018
     21 C         -2.136516   5.668887   5.378554 C.3        1 UNL1     0.0026
     22 C         -1.675447   4.210383   5.369796 C.3        1 UNL1     0.0016
     23 C         -4.038996   7.01942   4.597113 C.3        1 UNL1     0.0012
     24 C         -3.280141   8.097733   5.386503 C.3        1 UNL1     -0.0339
     25 C         -3.492007   9.493763   4.778004 C.3        1 UNL1     -0.0615
     26 C         -3.689071   8.057332   6.848667 C.3        1 UNL1     -0.0615
     27 C         -3.24076   -0.453755   10.823732 C.ar        1 UNL1     0.1347
     28 C         -2.823871   -1.696855   10.382195 C.ar        1 UNL1     0.0342
     29 C         -2.237603   -1.69519   9.098664 C.ar        1 UNL1     0.1435
     30 C         -2.130923   -0.544158   8.317022 C.ar        1 UNL1     0.0774
     31 O         -1.882783   -2.844912   8.484457 O.3        1 UNL1     -0.4436
     32 C         -1.790234   -2.499703   7.094084 C.3        1 UNL1     0.3143
     33 C         -1.550606   -1.0036   7.072469 C.2        1 UNL1     0.2504
     34 C         -3.093087   -3.010102   11.06264 C.3        1 UNL1     -0.0327
     35 O         -0.605295   -3.119481   6.579257 O.2        1 UNL1     -0.4528
     36 C         -1.310303   -3.832253   2.918245 C.3        1 UNL1     0.0854
     37 C         -1.725587   -2.833151   1.770701 C.3        1 UNL1     0.0236
     38 C         -0.774728   -2.854043   0.47951 C.3        1 UNL1     0.1131
     39 C         0.791666   -2.721299   0.655743 C.3        1 UNL1     0.0200
     40 C         1.430934   -1.601321   1.713772 C.3        1 UNL1     0.0661
     41 C         1.017012   0.041944   1.790957 C.3        1 UNL1     0.0091
     42 C         0.958557   1.188465   3.221858 C.3        1 UNL1     0.0661
     43 C         -3.75643   1.976448   10.514138 C.2        1 UNL1     0.2131
     44 O         -4.579503   2.051473   11.408375 O.2        1 UNL1     -0.2851
     45 O         -3.752058   -0.327098   12.113682 O.3        1 UNL1     -0.5056
     46 O         -0.987654   -0.34275   6.22854 O.2        1 UNL1     -0.2836
     47 C         2.92601   1.522171   4.992615 C.3        1 UNL1     -0.0566
     48 O         1.698719   2.271316   2.529971 O.3        1 UNL1     -0.3909
     49 C         -0.250188   0.263868   0.99569 C.3        1 UNL1     -0.0577
     50 O         1.521371   -2.138577   3.017957 O.3        1 UNL1     -0.3910
     51 O         -0.07292   -4.48596   2.748001 O.3        1 UNL1     -0.3753
     52 C         -2.321672   -1.505547   2.342629 C.3        1 UNL1     -0.0564
     53 O         -1.372326   -2.174027   -0.717478 O.3        1 UNL1     -0.4608
     54 C         -1.886249   -0.903806   -0.736195 C.2        1 UNL1     0.3042
     55 O         -3.072471   -0.577703   -0.716882 O.2        1 UNL1     -0.2512
     56 C         -0.835939   0.170152   -0.722853 C.3        1 UNL1     0.0332
     57 C         1.401586   -4.199714   0.677186 C.3        1 UNL1     -0.0567
     58 C         -3.178135   -2.791596   6.477595 C.3        1 UNL1     0.0210
     59 C         0.967853   -3.669322   2.213438 C.3        1 UNL1     0.0372
     60 C         -1.302859   -3.249089   4.28756 C.2        1 UNL1     -0.0208
     61 C         -0.406211   -3.358344   5.2688 C.2        1 UNL1     0.0882
     62 H         0.942396   0.796301   5.342912 H        1 UNL1     0.0365
     63 H         0.44128   1.731584   7.087721 H        1 UNL1     0.0576
     64 H         1.025326   4.753705   6.937874 H        1 UNL1     0.0615
     65 H         -0.310215   2.950922   9.111388 H        1 UNL1     0.0622
     66 H         -2.101647   -4.595023   2.919883 H        1 UNL1     0.0645
     67 H         -2.657122   -3.263975   1.36426 H        1 UNL1     0.0362
     68 H         -0.943891   -3.888359   0.143211 H        1 UNL1     0.0741
     69 H         1.224732   -2.42723   -0.291034 H        1 UNL1     0.0359
     70 H         2.47692   -1.573484   1.352941 H        1 UNL1     0.0600
     71 H         1.779035   0.465515   1.107681 H        1 UNL1     0.0348
     72 H         1.594229   0.34691   3.533341 H        1 UNL1     0.0602
     73 H         -2.236879   -2.779209   4.472135 H        1 UNL1     0.0628
     74 H         0.594878   -3.773042   5.145986 H        1 UNL1     0.1022
     75 H         -0.365184   7.03976   9.179146 H        1 UNL1     0.0279
     76 H         -1.859063   6.822272   10.000318 H        1 UNL1     0.0279
     77 H         -0.271338   6.739315   10.864926 H        1 UNL1     0.0279
     78 H         -3.237235   5.107907   9.670601 H        1 UNL1     0.1553
     79 H         -2.809948   4.996609   7.738953 H        1 UNL1     0.1484
     80 H         -3.948176   3.044795   4.683736 H        1 UNL1     0.0317
     81 H         -4.6727   2.83276   6.271196 H        1 UNL1     0.0317
     82 H         -4.56114   5.299264   6.715735 H        1 UNL1     0.0428
     83 H         -5.459468   4.913474   5.264571 H        1 UNL1     0.0428
     84 H         -1.443341   6.212295   4.728919 H        1 UNL1     0.0428
     85 H         -2.021559   6.154929   6.35726 H        1 UNL1     0.0428
     86 H         -0.623469   4.237969   5.585597 H        1 UNL1     0.0317
     87 H         -1.714725   3.811102   4.348949 H        1 UNL1     0.0317
     88 H         -3.884766   7.19774   3.524868 H        1 UNL1     0.0429
     89 H         -5.119342   7.080603   4.781186 H        1 UNL1     0.0429
     90 H         -2.208137   7.868149   5.368847 H        1 UNL1     0.0308
     91 H         -4.105324   10.122922   5.430003 H        1 UNL1     0.0233
     92 H         -2.533633   9.987583   4.601169 H        1 UNL1     0.0233
     93 H         -3.99901   9.453249   3.806335 H        1 UNL1     0.0233
     94 H         -3.7485   9.073821   7.252465 H        1 UNL1     0.0233
     95 H         -4.676025   7.596884   6.948029 H        1 UNL1     0.0233
     96 H         -2.972372   7.488803   7.447905 H        1 UNL1     0.0233
     97 H         -4.036369   -3.004421   11.600616 H        1 UNL1     0.0280
     98 H         -3.159847   -3.840582   10.347727 H        1 UNL1     0.0280
     99 H         -2.286188   -3.225156   11.782196 H        1 UNL1     0.0280
     100 H         -4.100003   0.52377   12.31513 H        1 UNL1     0.2922
     101 H         3.262967   1.385534   6.019964 H        1 UNL1     0.0236
     102 H         3.471748   2.317151   4.485506 H        1 UNL1     0.0236
     103 H         3.229184   0.5977   4.473354 H        1 UNL1     0.0236
     104 H         1.714475   2.055572   1.576988 H        1 UNL1     0.2098
     105 H         -1.088153   -0.356409   1.303719 H        1 UNL1     0.0234
     106 H         -0.560733   1.305504   0.915172 H        1 UNL1     0.0234
     107 H         0.0   0.0   -0.0 H        1 UNL1     0.0234
     108 H         2.316426   -2.705134   3.043827 H        1 UNL1     0.2098
     109 H         -3.41925   -1.486204   2.291053 H        1 UNL1     0.0234
     110 H         -1.999291   -1.295695   3.36819 H        1 UNL1     0.0234
     111 H         -1.981855   -0.630675   1.77248 H        1 UNL1     0.0234
     112 H         0.105156   -0.22475   -1.117489 H        1 UNL1     0.0342
     113 H         -1.149154   1.056165   -1.273054 H        1 UNL1     0.0342
     114 H         -0.664491   0.469438   0.320314 H        1 UNL1     0.0342
     115 H         1.99167   -4.411195   -0.225181 H        1 UNL1     0.0234
     116 H         2.037178   -4.405255   1.540797 H        1 UNL1     0.0234
     117 H         0.635743   -4.992391   0.621615 H        1 UNL1     0.0234
     118 H         -3.997326   -2.354045   7.074655 H        1 UNL1     0.0309
     119 H         -3.268362   -2.450359   5.441439 H        1 UNL1     0.0309
     120 H         -3.416785   -3.860723   6.466622 H        1 UNL1     0.0309
     121 H         1.868745   -3.860109   2.795977 H        1 UNL1     0.0524
     122 H         1.194022   -3.914602   1.16238 H        1 UNL1     0.0524
     123 H         0.693895   -2.620195   2.279576 H        1 UNL1     0.0524
@<TRIPOS>BOND
     1     1     2    1
     2     1    42    1
     3     2     3    2
     4     3     4    1
     5     4     5    2
     6     5     7    1
     7     6    75    1
     8     6    76    1
     9     6    77    1
    10     7     9   am
    11     9    10    1
    12    10    11    2
    13    10    43    1
    14    11    14    1
    15    11    15    1
    16    12    13   ar
    17    12    27   ar
    18    12    43    1
    19    13    14    1
    20    13    30   ar
    21    14    17    2
    22    15    16    1
    23    16    17    1
    24    16    18    1
    25    16    22    1
    26    18    19    1
    27    19    20    1
    28    20    21    1
    29    21    22    1
    30    23    24    1
    31    23    88    1
    32    23    89    1
    33    24    25    1
    34    24    26    1
    35    24    90    1
    36    25    91    1
    37    25    92    1
    38    25    93    1
    39    26    94    1
    40    26    95    1
    41    26    96    1
    42    27    28   ar
    43    28    29   ar
    44    29    30   ar
    45    29    31    1
    46    30    33    1
    47    31    32    1
    48    32    33    1
    49    32    35    1
    50    34    97    1
    51    34    98    1
    52    34    99    1
    53    35    61    1
    54    36    37    1
    55    36    60    1
    56    37    38    1
    57    38    39    1
    58    39    40    1
    59    40    41    1
    60    41    42    1
    61    45   100    1
    62    47   101    1
    63    47   102    1
    64    47   103    1
    65    48   104    1
    66    49   105    1
    67    49   106    1
    68    49   107    1
    69    50   108    1
    70    51    59    1
    71    52   109    1
    72    52   110    1
    73    52   111    1
    74    53    54    1
    75    54    55    2
    76    54    56    1
    77    56   112    1
    78    56   113    1
    79    56   114    1
    80    57   115    1
    81    57   116    1
    82    57   117    1
    83    58   118    1
    84    58   119    1
    85    58   120    1
    86    59   121    1
    87    59   122    1
    88    59   123    1
    89    60    61    2
    90     1    47    1
    91     1    62    1
    92     2    63    1
    93     3    64    1
    94     4    65    1
    95     5     6    1
    96     7     8    2
    97     9    78    1
    98    15    79    1
    99    18    80    1
   100    18    81    1
   101    19    82    1
   102    19    83    1
   103    20    23    1
   104    21    84    1
   105    21    85    1
   106    22    86    1
   107    22    87    1
   108    27    45    1
   109    28    34    1
   110    32    58    1
   111    33    46    2
   112    36    51    1
   113    36    66    1
   114    37    52    1
   115    37    67    1
   116    38    53    1
   117    38    68    1
   118    42    48    1
   119    42    72    1
   120    43    44    2
   121    60    73    1
   122    61    74    1
   123    39    69    1
   124    39    57    1
   125    40    70    1
   126    40    50    1
   127    41    71    1
   128    41    49    1
