@<TRIPOS>MOLECULE
*****
 123 128 0 0 0
SMALL
GASTEIGER

@<TRIPOS>ATOM
     1 C         -0.82159   3.532871   -3.828124 C.3        1 UNL1     0.0009
     2 C         -0.321589   3.889832   -5.5773 C.2        1 UNL1     -0.0787
     3 C         0.360325   4.725426   -6.543127 C.2        1 UNL1     -0.0649
     4 C         0.590866   4.431538   -8.194441 C.2        1 UNL1     -0.0542
     5 C         1.363577   4.760329   -9.335446 C.2        1 UNL1     0.0115
     6 C         2.432716   5.742257   -9.888694 C.3        1 UNL1     -0.0348
     7 C         1.340402   3.772273   -10.600435 C.2        1 UNL1     0.2441
     8 O         0.690472   4.000662   -11.611353 O.2        1 UNL1     -0.2702
     9 N         2.316752   2.761187   -10.576007 N.am        1 UNL1     -0.2772
     10 C         1.844952   1.654069   -9.908912 C.2        1 UNL1     0.1049
     11 C         1.937716   1.684756   -8.591841 C.2        1 UNL1     0.0801
     12 C         -0.115084   0.105778   -9.773296 C.ar        1 UNL1     0.0753
     13 C         -0.101666   0.338638   -8.361133 C.ar        1 UNL1     0.0305
     14 C         1.007642   1.032337   -7.710542 C.2        1 UNL1     0.0924
     15 N         2.609314   2.531412   -7.792681 N.pl3        1 UNL1     -0.3170
     16 C         2.524935   2.026605   -6.447949 C.3        1 UNL1     0.1275
     17 N         1.233157   1.246796   -6.417454 N.2        1 UNL1     -0.2557
     18 C         3.642383   1.00172   -6.278763 C.3        1 UNL1     0.0016
     19 C         4.967162   1.666191   -6.61792 C.3        1 UNL1     0.0026
     20 N         5.160771   2.803913   -5.729589 N.3        1 UNL1     -0.3018
     21 C         4.103335   3.815869   -5.775895 C.3        1 UNL1     0.0026
     22 C         2.782444   3.127534   -5.42756 C.3        1 UNL1     0.0016
     23 C         6.513796   3.322359   -5.763926 C.3        1 UNL1     0.0012
     24 C         7.486266   2.334084   -5.101076 C.3        1 UNL1     -0.0339
     25 C         8.626025   3.067844   -4.375401 C.3        1 UNL1     -0.0615
     26 C         6.730141   1.409442   -4.162944 C.3        1 UNL1     -0.0615
     27 C         -1.114378   -0.660141   -10.369029 C.ar        1 UNL1     0.1347
     28 C         -2.126235   -1.275215   -9.653571 C.ar        1 UNL1     0.0342
     29 C         -2.120741   -0.991739   -8.271263 C.ar        1 UNL1     0.1435
     30 C         -1.146864   -0.196655   -7.665765 C.ar        1 UNL1     0.0774
     31 O         -2.975394   -1.603982   -7.422892 O.3        1 UNL1     -0.4436
     32 C         -2.377834   -1.443374   -6.127516 C.3        1 UNL1     0.3143
     33 C         -1.473526   -0.234224   -6.255571 C.2        1 UNL1     0.2504
     34 C         -3.079194   -2.309244   -10.185316 C.3        1 UNL1     -0.0327
     35 O         -3.424896   -1.086654   -5.216657 O.2        1 UNL1     -0.4528
     36 C         -2.380213   -2.466376   -1.83833 C.3        1 UNL1     0.0854
     37 C         -1.067383   -2.186124   -1.010407 C.3        1 UNL1     0.0236
     38 C         -1.310706   -1.660116   0.48487 C.3        1 UNL1     0.1131
     39 C         -2.280484   -0.436433   0.738643 C.3        1 UNL1     0.0200
     40 C         -2.220425   0.907788   -0.247207 C.3        1 UNL1     0.0661
     41 C         -0.820374   1.765353   -0.67388 C.3        1 UNL1     0.0091
     42 C         -0.402616   2.671322   -2.213393 C.3        1 UNL1     0.0661
     43 C         1.020199   0.632334   -10.570875 C.2        1 UNL1     0.2131
     44 O         1.337476   0.193279   -11.661427 O.2        1 UNL1     -0.2851
     45 O         -1.079884   -0.80038   -11.754879 O.3        1 UNL1     -0.5056
     46 O         -1.1203   0.537389   -5.392033 O.2        1 UNL1     -0.2836
     47 C         -1.965061   4.486527   -3.388813 C.3        1 UNL1     -0.0566
     48 O         0.087824   3.878414   -1.505216 O.3        1 UNL1     -0.3909
     49 C         0.39038   0.93633   -0.307424 C.3        1 UNL1     -0.0577
     50 O         -3.045458   0.734526   -1.381678 O.3        1 UNL1     -0.3910
     51 O         -3.58769   -2.059978   -1.23478 O.3        1 UNL1     -0.3753
     52 C         0.080672   -1.625923   -1.912125 C.3        1 UNL1     -0.0564
     53 O         -0.08998   -1.736619   1.354526 O.3        1 UNL1     -0.4608
     54 C         0.269347   -0.815427   2.303325 C.2        1 UNL1     0.3042
     55 O         1.136795   0.052251   2.211097 O.2        1 UNL1     -0.2512
     56 C         -0.560306   -0.885058   3.553742 C.3        1 UNL1     0.0332
     57 C         -3.720422   -1.029712   1.103022 C.3        1 UNL1     -0.0567
     58 C         -1.50395   -2.697031   -5.890452 C.3        1 UNL1     0.0210
     59 C         -4.406381   -3.125586   -0.755103 C.3        1 UNL1     0.0372
     60 C         -2.382924   -1.912076   -3.219599 C.2        1 UNL1     -0.0208
     61 C         -3.330772   -1.248464   -3.882886 C.2        1 UNL1     0.0882
     62 H         -1.300286   2.608712   -4.1738 H        1 UNL1     0.0365
     63 H         -0.839093   3.086004   -6.105048 H        1 UNL1     0.0576
     64 H         0.954735   5.588423   -6.234873 H        1 UNL1     0.0615
     65 H         -0.099649   3.612244   -8.412222 H        1 UNL1     0.0622
     66 H         -2.40672   -3.559255   -1.952171 H        1 UNL1     0.0645
     67 H         -0.648287   -3.190267   -0.824354 H        1 UNL1     0.0362
     68 H         -1.828939   -2.535261   0.905676 H        1 UNL1     0.0741
     69 H         -2.070821   -0.023103   1.716195 H        1 UNL1     0.0359
     70 H         -2.768155   1.632574   0.385041 H        1 UNL1     0.0600
     71 H         -0.810393   2.530072   0.127408 H        1 UNL1     0.0348
     72 H         -1.497606   2.569868   -2.208871 H        1 UNL1     0.0602
     73 H         -1.504766   -2.229373   -3.724978 H        1 UNL1     0.0628
     74 H         -4.231793   -0.838656   -3.425223 H        1 UNL1     0.1022
     75 H         2.159241   6.797279   -9.645438 H        1 UNL1     0.0279
     76 H         3.432823   5.65693   -9.46968 H        1 UNL1     0.0279
     77 H         2.45458   5.771905   -10.987941 H        1 UNL1     0.0279
     78 H         3.139554   3.092234   -10.076526 H        1 UNL1     0.1553
     79 H         3.361338   3.116377   -8.107655 H        1 UNL1     0.1484
     80 H         3.633329   0.62994   -5.247035 H        1 UNL1     0.0317
     81 H         3.478454   0.133618   -6.926202 H        1 UNL1     0.0317
     82 H         5.009099   1.975838   -7.672564 H        1 UNL1     0.0428
     83 H         5.749849   0.917387   -6.492446 H        1 UNL1     0.0428
     84 H         4.232012   4.618588   -5.043164 H        1 UNL1     0.0428
     85 H         4.079362   4.338123   -6.742328 H        1 UNL1     0.0428
     86 H         2.058795   3.916696   -5.3407 H        1 UNL1     0.0317
     87 H         2.831184   2.71502   -4.412398 H        1 UNL1     0.0317
     88 H         6.805047   3.447428   -6.815033 H        1 UNL1     0.0429
     89 H         6.573548   4.312336   -5.29366 H        1 UNL1     0.0429
     90 H         7.922217   1.687533   -5.871875 H        1 UNL1     0.0308
     91 H         8.244281   3.895154   -3.769653 H        1 UNL1     0.0233
     92 H         9.181404   2.3799   -3.73361 H        1 UNL1     0.0233
     93 H         9.35795   3.494717   -5.07175 H        1 UNL1     0.0233
     94 H         7.413135   0.985348   -3.418968 H        1 UNL1     0.0233
     95 H         5.956452   1.969162   -3.629952 H        1 UNL1     0.0233
     96 H         6.258602   0.586784   -4.707787 H        1 UNL1     0.0233
     97 H         -4.049435   -2.256812   -9.700431 H        1 UNL1     0.0280
     98 H         -3.272215   -2.181171   -11.25844 H        1 UNL1     0.0280
     99 H         -2.662827   -3.31596   -10.017218 H        1 UNL1     0.0280
     100 H         -0.976114   0.006701   -12.22761 H        1 UNL1     0.2922
     101 H         -2.911348   3.946056   -3.379396 H        1 UNL1     0.0236
     102 H         -2.019044   5.395286   -3.987332 H        1 UNL1     0.0236
     103 H         -1.834328   4.839991   -2.352394 H        1 UNL1     0.0236
     104 H         0.261015   3.625947   -0.577188 H        1 UNL1     0.2098
     105 H         1.07729   0.756338   -1.130569 H        1 UNL1     0.0234
     106 H         0.934765   1.287978   0.568884 H        1 UNL1     0.0234
     107 H         0.0   0.0   0.0 H        1 UNL1     0.0234
     108 H         -2.803842   1.428613   -2.024822 H        1 UNL1     0.2098
     109 H         0.364787   -2.328348   -2.708107 H        1 UNL1     0.0234
     110 H         -0.153984   -0.6502   -2.351039 H        1 UNL1     0.0234
     111 H         0.996984   -1.444629   -1.334673 H        1 UNL1     0.0234
     112 H         -0.236974   -0.112861   4.258379 H        1 UNL1     0.0342
     113 H         -1.625506   -0.801003   3.343679 H        1 UNL1     0.0342
     114 H         -0.390018   -1.863115   4.024456 H        1 UNL1     0.0342
     115 H         -4.251007   -0.397518   1.82828 H        1 UNL1     0.0234
     116 H         -4.377036   -1.162397   0.240872 H        1 UNL1     0.0234
     117 H         -3.676177   -1.988275   1.648128 H        1 UNL1     0.0234
     118 H         -1.92324   -3.352635   -5.107263 H        1 UNL1     0.0309
     119 H         -1.339956   -3.284559   -6.799364 H        1 UNL1     0.0309
     120 H         -0.50857   -2.449011   -5.505991 H        1 UNL1     0.0309
     121 H         -5.437202   -2.772417   -0.749199 H        1 UNL1     0.0524
     122 H         -4.363235   -4.012974   -1.40834 H        1 UNL1     0.0524
     123 H         -4.102203   -3.411025   0.24794 H        1 UNL1     0.0524
@<TRIPOS>BOND
     1     1     2    1
     2     1    42    1
     3     2     3    2
     4     3     4    1
     5     4     5    2
     6     5     7    1
     7     6    75    1
     8     6    76    1
     9     6    77    1
    10     7     9   am
    11     9    10    1
    12    10    11    2
    13    10    43    1
    14    11    14    1
    15    11    15    1
    16    12    13   ar
    17    12    27   ar
    18    12    43    1
    19    13    14    1
    20    13    30   ar
    21    14    17    2
    22    15    16    1
    23    16    17    1
    24    16    18    1
    25    16    22    1
    26    18    19    1
    27    19    20    1
    28    20    21    1
    29    21    22    1
    30    23    24    1
    31    23    88    1
    32    23    89    1
    33    24    25    1
    34    24    26    1
    35    24    90    1
    36    25    91    1
    37    25    92    1
    38    25    93    1
    39    26    94    1
    40    26    95    1
    41    26    96    1
    42    27    28   ar
    43    28    29   ar
    44    29    30   ar
    45    29    31    1
    46    30    33    1
    47    31    32    1
    48    32    33    1
    49    32    35    1
    50    34    97    1
    51    34    98    1
    52    34    99    1
    53    35    61    1
    54    36    37    1
    55    36    60    1
    56    37    38    1
    57    38    39    1
    58    39    40    1
    59    40    41    1
    60    41    42    1
    61    45   100    1
    62    47   101    1
    63    47   102    1
    64    47   103    1
    65    48   104    1
    66    49   105    1
    67    49   106    1
    68    49   107    1
    69    50   108    1
    70    51    59    1
    71    52   109    1
    72    52   110    1
    73    52   111    1
    74    53    54    1
    75    54    55    2
    76    54    56    1
    77    56   112    1
    78    56   113    1
    79    56   114    1
    80    57   115    1
    81    57   116    1
    82    57   117    1
    83    58   118    1
    84    58   119    1
    85    58   120    1
    86    59   121    1
    87    59   122    1
    88    59   123    1
    89    60    61    2
    90     1    47    1
    91     1    62    1
    92     2    63    1
    93     3    64    1
    94     4    65    1
    95     5     6    1
    96     7     8    2
    97     9    78    1
    98    15    79    1
    99    18    80    1
   100    18    81    1
   101    19    82    1
   102    19    83    1
   103    20    23    1
   104    21    84    1
   105    21    85    1
   106    22    86    1
   107    22    87    1
   108    27    45    1
   109    28    34    1
   110    32    58    1
   111    33    46    2
   112    36    51    1
   113    36    66    1
   114    37    52    1
   115    37    67    1
   116    38    53    1
   117    38    68    1
   118    42    48    1
   119    42    72    1
   120    43    44    2
   121    60    73    1
   122    61    74    1
   123    39    69    1
   124    39    57    1
   125    40    70    1
   126    40    50    1
   127    41    71    1
   128    41    49    1
