@<TRIPOS>MOLECULE
*****
 123 128 0 0 0
SMALL
GASTEIGER

@<TRIPOS>ATOM
     1 C         1.210877   3.155059   3.847818 C.3        1 UNL1     0.0009
     2 C         0.630568   4.652411   4.774218 C.2        1 UNL1     -0.0787
     3 C         0.524745   6.091157   4.896104 C.2        1 UNL1     -0.0649
     4 C         -0.333284   6.976884   6.056117 C.2        1 UNL1     -0.0542
     5 C         -0.916823   8.231261   6.361237 C.2        1 UNL1     0.0115
     6 C         -1.02895   9.710489   5.900113 C.3        1 UNL1     -0.0348
     7 C         -2.005989   8.315862   7.53748 C.2        1 UNL1     0.2441
     8 O         -1.747605   8.743496   8.654124 O.2        1 UNL1     -0.2702
     9 N         -3.334565   8.112165   7.125725 N.am        1 UNL1     -0.2772
     10 C         -3.646377   6.772305   7.155224 C.2        1 UNL1     0.1049
     11 C         -3.28038   6.066189   6.100868 C.2        1 UNL1     0.0801
     12 C         -3.525017   4.738986   8.607195 C.ar        1 UNL1     0.0753
     13 C         -2.934243   4.070895   7.487709 C.ar        1 UNL1     0.0305
     14 C         -2.914382   4.676899   6.158267 C.2        1 UNL1     0.0924
     15 N         -2.834758   6.474234   4.900265 N.pl3        1 UNL1     -0.3170
     16 C         -2.740759   5.317288   4.050034 C.3        1 UNL1     0.1275
     17 N         -2.503725   4.168633   4.99984 N.2        1 UNL1     -0.2557
     18 C         -4.12214   5.08782   3.444368 C.3        1 UNL1     0.0016
     19 C         -4.557273   6.357768   2.730589 C.3        1 UNL1     0.0026
     20 N         -3.578748   6.673316   1.699111 N.3        1 UNL1     -0.3018
     21 C         -2.206305   6.851335   2.17773 C.3        1 UNL1     0.0026
     22 C         -1.788125   5.562321   2.88728 C.3        1 UNL1     0.0016
     23 C         -4.0447   7.683213   0.769788 C.3        1 UNL1     0.0012
     24 C         -4.916571   8.720761   1.494421 C.3        1 UNL1     -0.0339
     25 C         -5.577756   8.1231   2.747294 C.3        1 UNL1     -0.0615
     26 C         -4.091397   9.950736   1.830619 C.3        1 UNL1     -0.0615
     27 C         -3.648397   4.106743   9.842171 C.ar        1 UNL1     0.1347
     28 C         -3.255382   2.799488   10.067281 C.ar        1 UNL1     0.0342
     29 C         -2.632009   2.178074   8.964369 C.ar        1 UNL1     0.1435
     30 C         -2.468811   2.811386   7.731689 C.ar        1 UNL1     0.0774
     31 O         -2.293221   0.870585   8.990868 O.3        1 UNL1     -0.4436
     32 C         -2.149948   0.505019   7.610033 C.3        1 UNL1     0.3143
     33 C         -1.866041   1.804256   6.883677 C.2        1 UNL1     0.2504
     34 C         -3.582771   1.977208   11.282505 C.3        1 UNL1     -0.0327
     35 O         -0.969127   -0.29959   7.502709 O.2        1 UNL1     -0.4528
     36 C         -1.587293   -2.673713   4.606246 C.3        1 UNL1     0.0854
     37 C         -1.939358   -2.343195   3.104803 C.3        1 UNL1     0.0236
     38 C         -0.952144   -2.992332   2.020471 C.3        1 UNL1     0.1131
     39 C         0.61164   -2.809596   2.173627 C.3        1 UNL1     0.0200
     40 C         1.252227   -1.326796   2.590029 C.3        1 UNL1     0.0661
     41 C         0.884567   0.156586   1.853813 C.3        1 UNL1     0.0091
     42 C         0.817896   1.849777   2.556708 C.3        1 UNL1     0.0661
     43 C         -4.083334   6.095995   8.385683 C.2        1 UNL1     0.2131
     44 O         -4.929669   6.600608   9.101099 O.2        1 UNL1     -0.2851
     45 O         -4.193291   4.84293   10.892198 O.3        1 UNL1     -0.5056
     46 O         -1.259507   1.972349   5.849407 O.2        1 UNL1     -0.2836
     47 C         2.741627   2.969408   4.027592 C.3        1 UNL1     -0.0566
     48 O         1.609409   2.458961   1.46057 O.3        1 UNL1     -0.3909
     49 C         -0.35177   -0.015627   0.999817 C.3        1 UNL1     -0.0577
     50 O         1.288676   -1.1732   3.994594 O.3        1 UNL1     -0.3910
     51 O         -0.365152   -3.343315   4.819398 O.3        1 UNL1     -0.3753
     52 C         -2.512754   -0.897139   2.946405 C.3        1 UNL1     -0.0564
     53 O         -1.494271   -2.963324   0.621335 O.3        1 UNL1     -0.4608
     54 C         -1.811716   -4.063605   -0.131354 C.2        1 UNL1     0.3042
     55 O         -2.153345   -4.08681   -1.313128 O.2        1 UNL1     -0.2512
     56 C         -1.653466   -5.36277   0.606102 C.3        1 UNL1     0.0332
     57 C         1.177076   -4.10332   2.925114 C.3        1 UNL1     -0.0567
     58 C         -3.527174   -0.03071   7.154213 C.3        1 UNL1     0.0210
     59 C         0.689857   -2.960089   3.938512 C.3        1 UNL1     0.0372
     60 C         -1.602832   -1.505036   5.527719 C.2        1 UNL1     -0.0208
     61 C         -0.738869   -1.140402   6.476062 C.2        1 UNL1     0.0882
     62 H         0.728189   2.523951   4.603746 H        1 UNL1     0.0365
     63 H         0.203861   4.18767   5.665513 H        1 UNL1     0.0576
     64 H         0.880372   6.759991   4.109148 H        1 UNL1     0.0615
     65 H         -0.570466   6.237329   6.825718 H        1 UNL1     0.0622
     66 H         -2.400364   -3.332801   4.941753 H        1 UNL1     0.0645
     67 H         -2.870827   -2.905314   2.917864 H        1 UNL1     0.0362
     68 H         -1.141638   -4.059084   2.214519 H        1 UNL1     0.0741
     69 H         1.080658   -3.011095   1.219777 H        1 UNL1     0.0359
     70 H         2.30869   -1.487771   2.301875 H        1 UNL1     0.0600
     71 H         1.678345   0.191314   1.082018 H        1 UNL1     0.0348
     72 H         1.419242   1.253623   3.258348 H        1 UNL1     0.0602
     73 H         -2.527679   -0.993354   5.427277 H        1 UNL1     0.0628
     74 H         0.2528   -1.574818   6.606879 H        1 UNL1     0.1022
     75 H         -1.755736   9.804425   5.057503 H        1 UNL1     0.0279
     76 H         -1.421469   10.417104   6.627914 H        1 UNL1     0.0279
     77 H         -0.105271   10.081209   5.432048 H        1 UNL1     0.0279
     78 H         -3.448115   8.432051   6.166112 H        1 UNL1     0.1553
     79 H         -2.967933   7.402336   4.54274 H        1 UNL1     0.1484
     80 H         -4.072992   4.237112   2.753971 H        1 UNL1     0.0317
     81 H         -4.849562   4.821472   4.218686 H        1 UNL1     0.0317
     82 H         -4.678811   7.197189   3.430956 H        1 UNL1     0.0428
     83 H         -5.545211   6.172772   2.307736 H        1 UNL1     0.0428
     84 H         -1.478786   7.008137   1.37527 H        1 UNL1     0.0428
     85 H         -2.105838   7.746087   2.807527 H        1 UNL1     0.0428
     86 H         -0.742556   5.677808   3.10508 H        1 UNL1     0.0317
     87 H         -1.8092   4.722568   2.181967 H        1 UNL1     0.0317
     88 H         -3.167197   8.194314   0.352584 H        1 UNL1     0.0429
     89 H         -4.584382   7.231429   -0.072476 H        1 UNL1     0.0429
     90 H         -5.704626   9.065462   0.814448 H        1 UNL1     0.0308
     91 H         -5.300377   8.679884   3.64738 H        1 UNL1     0.0233
     92 H         -6.665663   8.122526   2.646959 H        1 UNL1     0.0233
     93 H         -5.285692   7.079535   2.916129 H        1 UNL1     0.0233
     94 H         -4.652079   10.85976   1.58742 H        1 UNL1     0.0233
     95 H         -3.867157   9.969146   2.900824 H        1 UNL1     0.0233
     96 H         -3.150972   9.965093   1.272619 H        1 UNL1     0.0233
     97 H         -4.630587   1.693626   11.312396 H        1 UNL1     0.0280
     98 H         -3.016129   1.037339   11.311154 H        1 UNL1     0.0280
     99 H         -3.355493   2.556586   12.192319 H        1 UNL1     0.0280
     100 H         -3.63018   4.932993   11.640809 H        1 UNL1     0.2922
     101 H         3.199796   3.923662   4.286701 H        1 UNL1     0.0236
     102 H         3.221298   2.505932   3.166146 H        1 UNL1     0.0236
     103 H         2.981574   2.304705   4.874226 H        1 UNL1     0.0236
     104 H         0.994294   2.65728   0.727581 H        1 UNL1     0.2098
     105 H         -0.876309   -0.955365   1.153321 H        1 UNL1     0.0234
     106 H         -1.052044   0.818648   1.038904 H        1 UNL1     0.0234
     107 H         0.0   0.0   -0.0 H        1 UNL1     0.0234
     108 H         0.372349   -1.014833   4.29298 H        1 UNL1     0.2098
     109 H         -1.873456   -0.141533   3.423971 H        1 UNL1     0.0234
     110 H         -2.69337   -0.617677   1.902843 H        1 UNL1     0.0234
     111 H         -3.497168   -0.797666   3.422829 H        1 UNL1     0.0234
     112 H         -1.142323   -6.09186   -0.029906 H        1 UNL1     0.0342
     113 H         -1.130322   -5.235315   1.552632 H        1 UNL1     0.0342
     114 H         -2.655283   -5.754651   0.829614 H        1 UNL1     0.0342
     115 H         0.545843   -4.985512   2.750552 H        1 UNL1     0.0234
     116 H         2.198009   -4.369248   2.643997 H        1 UNL1     0.0234
     117 H         1.135899   -4.026147   4.025246 H        1 UNL1     0.0234
     118 H         -4.008436   -0.650882   7.930602 H        1 UNL1     0.0309
     119 H         -4.217645   0.762528   6.850525 H        1 UNL1     0.0309
     120 H         -3.45149   -0.710794   6.298722 H        1 UNL1     0.0309
     121 H         0.244387   -2.409113   3.110661 H        1 UNL1     0.0524
     122 H         1.420535   -2.293385   4.426008 H        1 UNL1     0.0524
     123 H         1.207996   -3.839864   3.567538 H        1 UNL1     0.0524
@<TRIPOS>BOND
     1     1     2    1
     2     1    42    1
     3     2     3    2
     4     3     4    1
     5     4     5    2
     6     5     7    1
     7     6    75    1
     8     6    76    1
     9     6    77    1
    10     7     9   am
    11     9    10    1
    12    10    11    2
    13    10    43    1
    14    11    14    1
    15    11    15    1
    16    12    13   ar
    17    12    27   ar
    18    12    43    1
    19    13    14    1
    20    13    30   ar
    21    14    17    2
    22    15    16    1
    23    16    17    1
    24    16    18    1
    25    16    22    1
    26    18    19    1
    27    19    20    1
    28    20    21    1
    29    21    22    1
    30    23    24    1
    31    23    88    1
    32    23    89    1
    33    24    25    1
    34    24    26    1
    35    24    90    1
    36    25    91    1
    37    25    92    1
    38    25    93    1
    39    26    94    1
    40    26    95    1
    41    26    96    1
    42    27    28   ar
    43    28    29   ar
    44    29    30   ar
    45    29    31    1
    46    30    33    1
    47    31    32    1
    48    32    33    1
    49    32    35    1
    50    34    97    1
    51    34    98    1
    52    34    99    1
    53    35    61    1
    54    36    37    1
    55    36    60    1
    56    37    38    1
    57    38    39    1
    58    39    40    1
    59    40    41    1
    60    41    42    1
    61    45   100    1
    62    47   101    1
    63    47   102    1
    64    47   103    1
    65    48   104    1
    66    49   105    1
    67    49   106    1
    68    49   107    1
    69    50   108    1
    70    51    59    1
    71    52   109    1
    72    52   110    1
    73    52   111    1
    74    53    54    1
    75    54    55    2
    76    54    56    1
    77    56   112    1
    78    56   113    1
    79    56   114    1
    80    57   115    1
    81    57   116    1
    82    57   117    1
    83    58   118    1
    84    58   119    1
    85    58   120    1
    86    59   121    1
    87    59   122    1
    88    59   123    1
    89    60    61    2
    90     1    47    1
    91     1    62    1
    92     2    63    1
    93     3    64    1
    94     4    65    1
    95     5     6    1
    96     7     8    2
    97     9    78    1
    98    15    79    1
    99    18    80    1
   100    18    81    1
   101    19    82    1
   102    19    83    1
   103    20    23    1
   104    21    84    1
   105    21    85    1
   106    22    86    1
   107    22    87    1
   108    27    45    1
   109    28    34    1
   110    32    58    1
   111    33    46    2
   112    36    51    1
   113    36    66    1
   114    37    52    1
   115    37    67    1
   116    38    53    1
   117    38    68    1
   118    42    48    1
   119    42    72    1
   120    43    44    2
   121    60    73    1
   122    61    74    1
   123    39    69    1
   124    39    57    1
   125    40    70    1
   126    40    50    1
   127    41    71    1
   128    41    49    1
