@<TRIPOS>MOLECULE
*****
 123 128 0 0 0
SMALL
GASTEIGER

@<TRIPOS>ATOM
     1 C         5.199314   1.595941   0.647598 C.3        1 UNL1     0.0009
     2 C         6.687643   2.348749   -0.161843 C.2        1 UNL1     -0.0787
     3 C         7.987346   2.204433   -0.783124 C.2        1 UNL1     -0.0649
     4 C         8.927056   3.404072   -1.520802 C.2        1 UNL1     -0.0542
     5 C         9.986288   3.655412   -2.427408 C.2        1 UNL1     0.0115
     6 C         11.1229   2.986636   -3.24849 C.3        1 UNL1     -0.0348
     7 C         10.147366   5.128459   -3.044802 C.2        1 UNL1     0.2441
     8 O         10.983112   5.928678   -2.647683 O.2        1 UNL1     -0.2702
     9 N         9.44326   5.345532   -4.241993 N.am        1 UNL1     -0.2772
     10 C         8.163318   5.774424   -3.97531 C.2        1 UNL1     0.1049
     11 C         7.278789   4.8324   -3.702507 C.2        1 UNL1     0.0801
     12 C         6.868733   7.43495   -2.62474 C.ar        1 UNL1     0.0753
     13 C         6.060848   6.335542   -2.192036 C.ar        1 UNL1     0.0305
     14 C         6.158966   5.020009   -2.820364 C.2        1 UNL1     0.0924
     15 N         7.365683   3.498669   -3.844417 N.pl3        1 UNL1     -0.3170
     16 C         6.068231   2.941838   -3.567268 C.3        1 UNL1     0.1275
     17 N         5.429256   3.9265   -2.61865 N.2        1 UNL1     -0.2557
     18 C         5.260149   3.013212   -4.859402 C.3        1 UNL1     0.0016
     19 C         6.030778   2.294343   -5.955281 C.3        1 UNL1     0.0026
     20 N         6.245387   0.912897   -5.547139 N.3        1 UNL1     -0.3018
     21 C         6.961762   0.742714   -4.281354 C.3        1 UNL1     0.0026
     22 C         6.167745   1.468651   -3.19395 C.3        1 UNL1     0.0016
     23 C         6.701162   0.068302   -6.63322 C.3        1 UNL1     0.0012
     24 C         5.571925   -0.156468   -7.651089 C.3        1 UNL1     -0.0339
     25 C         5.716851   0.774117   -8.866434 C.3        1 UNL1     -0.0615
     26 C         5.52874   -1.616571   -8.067037 C.3        1 UNL1     -0.0615
     27 C         6.685329   8.714026   -2.104697 C.ar        1 UNL1     0.1347
     28 C         5.703591   9.022964   -1.180145 C.ar        1 UNL1     0.0342
     29 C         4.952511   7.915416   -0.732506 C.ar        1 UNL1     0.1435
     30 C         5.149104   6.621932   -1.217758 C.ar        1 UNL1     0.0774
     31 O         3.887671   8.0698   0.084371 O.3        1 UNL1     -0.4436
     32 C         3.13353   6.858051   -0.069928 C.3        1 UNL1     0.3143
     33 C         4.13294   5.828892   -0.558012 C.2        1 UNL1     0.2504
     34 C         5.284581   10.406704   -0.768082 C.3        1 UNL1     -0.0327
     35 O         2.716009   6.446742   1.237648 O.2        1 UNL1     -0.4528
     36 C         -0.569956   4.609971   0.751037 C.3        1 UNL1     0.0854
     37 C         -0.883871   3.349659   -0.143722 C.3        1 UNL1     0.0236
     38 C         -1.548843   2.116044   0.63586 C.3        1 UNL1     0.1131
     39 C         -0.883489   1.577335   1.966035 C.3        1 UNL1     0.0200
     40 C         0.770147   1.381759   2.064415 C.3        1 UNL1     0.0661
     41 C         1.743774   0.571532   0.936057 C.3        1 UNL1     0.0091
     42 C         3.479536   0.875855   0.426233 C.3        1 UNL1     0.0661
     43 C         7.848718   7.186356   -3.71106 C.2        1 UNL1     0.2131
     44 O         8.299744   8.064048   -4.424482 O.2        1 UNL1     -0.2851
     45 O         7.543876   9.718931   -2.54572 O.3        1 UNL1     -0.5056
     46 O         4.107521   4.626909   -0.415027 O.2        1 UNL1     -0.2836
     47 C         5.534183   1.170141   2.10243 C.3        1 UNL1     -0.0566
     48 O         3.88149   -0.547282   0.536818 O.3        1 UNL1     -0.3909
     49 C         0.944557   0.351071   -0.32891 C.3        1 UNL1     -0.0577
     50 O         1.394134   2.58496   2.465252 O.3        1 UNL1     -0.3910
     51 O         -0.746065   4.439184   2.139291 O.3        1 UNL1     -0.3753
     52 C         0.192931   3.145052   -1.258883 C.3        1 UNL1     -0.0564
     53 O         -2.152853   1.08623   -0.273526 O.3        1 UNL1     -0.4608
     54 C         -2.438543   -0.209041   0.070831 C.2        1 UNL1     0.3042
     55 O         -1.886207   -1.229694   -0.337864 O.2        1 UNL1     -0.2512
     56 C         -3.518244   -0.33139   1.108131 C.3        1 UNL1     0.0332
     57 C         -1.625163   2.281532   3.195751 C.3        1 UNL1     -0.0567
     58 C         2.103065   7.124034   -1.191946 C.3        1 UNL1     0.0210
     59 C         -1.047285   5.635093   2.85688 C.3        1 UNL1     0.0372
     60 C         0.784709   5.195794   0.559065 C.2        1 UNL1     -0.0208
     61 C         1.681167   5.6124   1.454356 C.2        1 UNL1     0.0882
     62 H         4.751268   2.595026   0.709209 H        1 UNL1     0.0365
     63 H         6.450597   3.411238   -0.075842 H        1 UNL1     0.0576
     64 H         8.422129   1.221774   -0.979215 H        1 UNL1     0.0615
     65 H         8.457106   4.337558   -1.199503 H        1 UNL1     0.0622
     66 H         -1.280541   5.375423   0.408695 H        1 UNL1     0.0645
     67 H         -1.718665   3.678606   -0.78674 H        1 UNL1     0.0362
     68 H         -2.493199   2.585312   0.951299 H        1 UNL1     0.0741
     69 H         -1.252292   0.578963   2.16006 H        1 UNL1     0.0359
     70 H         0.83216   0.727885   2.955292 H        1 UNL1     0.0600
     71 H         1.741675   -0.445818   1.37418 H        1 UNL1     0.0348
     72 H         3.356189   1.377605   1.39698 H        1 UNL1     0.0602
     73 H         0.943047   5.378161   -0.474821 H        1 UNL1     0.0628
     74 H         1.621556   5.413931   2.525007 H        1 UNL1     0.1022
     75 H         11.110254   1.879173   -3.105656 H        1 UNL1     0.0279
     76 H         11.061939   3.084047   -4.330092 H        1 UNL1     0.0279
     77 H         12.124992   3.2421   -2.873989 H        1 UNL1     0.0279
     78 H         9.372011   4.472257   -4.760058 H        1 UNL1     0.1553
     79 H         8.03764   3.043987   -4.434901 H        1 UNL1     0.1484
     80 H         4.278286   2.553886   -4.692876 H        1 UNL1     0.0317
     81 H         5.074701   4.053394   -5.147985 H        1 UNL1     0.0317
     82 H         6.985089   2.794365   -6.177048 H        1 UNL1     0.0428
     83 H         5.437637   2.358854   -6.868009 H        1 UNL1     0.0428
     84 H         7.03957   -0.300017   -3.958137 H        1 UNL1     0.0428
     85 H         8.005578   1.078083   -4.354106 H        1 UNL1     0.0428
     86 H         6.645716   1.212509   -2.26663 H        1 UNL1     0.0317
     87 H         5.170444   1.022424   -3.097166 H        1 UNL1     0.0317
     88 H         7.530628   0.579893   -7.138745 H        1 UNL1     0.0429
     89 H         7.092527   -0.886353   -6.258731 H        1 UNL1     0.0429
     90 H         4.608223   0.046268   -7.169019 H        1 UNL1     0.0308
     91 H         6.685253   0.639181   -9.357446 H        1 UNL1     0.0233
     92 H         4.919183   0.591288   -9.590249 H        1 UNL1     0.0233
     93 H         5.644063   1.833535   -8.592264 H        1 UNL1     0.0233
     94 H         4.860897   -1.745091   -8.925702 H        1 UNL1     0.0233
     95 H         6.527082   -1.950296   -8.36352 H        1 UNL1     0.0233
     96 H         5.171119   -2.25304   -7.252799 H        1 UNL1     0.0233
     97 H         4.459852   10.38934   -0.061859 H        1 UNL1     0.0280
     98 H         6.09564   10.953461   -0.269588 H        1 UNL1     0.0280
     99 H         4.966562   10.976009   -1.656817 H        1 UNL1     0.0280
     100 H         7.111151   10.480415   -2.889979 H        1 UNL1     0.2922
     101 H         4.639172   0.779995   2.586578 H        1 UNL1     0.0236
     102 H         6.001138   1.963843   2.684645 H        1 UNL1     0.0236
     103 H         6.255557   0.336598   2.134334 H        1 UNL1     0.0236
     104 H         4.262149   -0.67792   1.427325 H        1 UNL1     0.2098
     105 H         0.778867   1.24971   -0.917813 H        1 UNL1     0.0234
     106 H         1.311143   -0.454871   -0.964519 H        1 UNL1     0.0234
     107 H         0.0   -0.0   0.0 H        1 UNL1     0.0234
     108 H         1.254272   3.236206   1.751049 H        1 UNL1     0.2098
     109 H         1.202413   3.016893   -0.843874 H        1 UNL1     0.0234
     110 H         -0.035935   2.310381   -1.930215 H        1 UNL1     0.0234
     111 H         0.254291   4.014669   -1.926676 H        1 UNL1     0.0234
     112 H         -3.68208   -1.385388   1.352245 H        1 UNL1     0.0342
     113 H         -3.293576   0.246629   2.003263 H        1 UNL1     0.0342
     114 H         -4.450249   0.064323   0.681581 H        1 UNL1     0.0342
     115 H         -2.702596   2.066347   3.200336 H        1 UNL1     0.0234
     116 H         -1.229733   1.99902   4.173437 H        1 UNL1     0.0234
     117 H         -1.628193   3.383463   3.135075 H        1 UNL1     0.0234
     118 H         1.203508   7.641176   -0.814629 H        1 UNL1     0.0309
     119 H         2.517893   7.692645   -2.030279 H        1 UNL1     0.0309
     120 H         1.701492   6.199784   -1.621605 H        1 UNL1     0.0309
     121 H         -0.185392   6.296391   2.77213 H        1 UNL1     0.0524
     122 H         -1.91676   6.167444   2.436578 H        1 UNL1     0.0524
     123 H         -1.243992   5.407614   3.900745 H        1 UNL1     0.0524
@<TRIPOS>BOND
     1     1     2    1
     2     1    42    1
     3     2     3    2
     4     3     4    1
     5     4     5    2
     6     5     7    1
     7     6    75    1
     8     6    76    1
     9     6    77    1
    10     7     9   am
    11     9    10    1
    12    10    11    2
    13    10    43    1
    14    11    14    1
    15    11    15    1
    16    12    13   ar
    17    12    27   ar
    18    12    43    1
    19    13    14    1
    20    13    30   ar
    21    14    17    2
    22    15    16    1
    23    16    17    1
    24    16    18    1
    25    16    22    1
    26    18    19    1
    27    19    20    1
    28    20    21    1
    29    21    22    1
    30    23    24    1
    31    23    88    1
    32    23    89    1
    33    24    25    1
    34    24    26    1
    35    24    90    1
    36    25    91    1
    37    25    92    1
    38    25    93    1
    39    26    94    1
    40    26    95    1
    41    26    96    1
    42    27    28   ar
    43    28    29   ar
    44    29    30   ar
    45    29    31    1
    46    30    33    1
    47    31    32    1
    48    32    33    1
    49    32    35    1
    50    34    97    1
    51    34    98    1
    52    34    99    1
    53    35    61    1
    54    36    37    1
    55    36    60    1
    56    37    38    1
    57    38    39    1
    58    39    40    1
    59    40    41    1
    60    41    42    1
    61    45   100    1
    62    47   101    1
    63    47   102    1
    64    47   103    1
    65    48   104    1
    66    49   105    1
    67    49   106    1
    68    49   107    1
    69    50   108    1
    70    51    59    1
    71    52   109    1
    72    52   110    1
    73    52   111    1
    74    53    54    1
    75    54    55    2
    76    54    56    1
    77    56   112    1
    78    56   113    1
    79    56   114    1
    80    57   115    1
    81    57   116    1
    82    57   117    1
    83    58   118    1
    84    58   119    1
    85    58   120    1
    86    59   121    1
    87    59   122    1
    88    59   123    1
    89    60    61    2
    90     1    47    1
    91     1    62    1
    92     2    63    1
    93     3    64    1
    94     4    65    1
    95     5     6    1
    96     7     8    2
    97     9    78    1
    98    15    79    1
    99    18    80    1
   100    18    81    1
   101    19    82    1
   102    19    83    1
   103    20    23    1
   104    21    84    1
   105    21    85    1
   106    22    86    1
   107    22    87    1
   108    27    45    1
   109    28    34    1
   110    32    58    1
   111    33    46    2
   112    36    51    1
   113    36    66    1
   114    37    52    1
   115    37    67    1
   116    38    53    1
   117    38    68    1
   118    42    48    1
   119    42    72    1
   120    43    44    2
   121    60    73    1
   122    61    74    1
   123    39    69    1
   124    39    57    1
   125    40    70    1
   126    40    50    1
   127    41    71    1
   128    41    49    1
