@<TRIPOS>MOLECULE
*****
 123 128 0 0 0
SMALL
GASTEIGER

@<TRIPOS>ATOM
     1 C         -1.444537   -3.264672   -3.248738 C.3        1 UNL1     0.0009
     2 C         -0.720077   -3.903402   -4.83121 C.2        1 UNL1     -0.0787
     3 C         -0.782633   -4.056718   -6.269482 C.2        1 UNL1     -0.0649
     4 C         0.384327   -4.727936   -7.296142 C.2        1 UNL1     -0.0542
     5 C         0.850177   -4.803362   -8.631946 C.2        1 UNL1     0.0115
     6 C         0.508126   -4.444521   -10.104208 C.3        1 UNL1     -0.0348
     7 C         2.34328   -5.325579   -8.905665 C.2        1 UNL1     0.2441
     8 O         2.5908   -6.457121   -9.299204 O.2        1 UNL1     -0.2702
     9 N         3.326317   -4.320735   -8.914627 N.am        1 UNL1     -0.2772
     10 C         3.808202   -4.109032   -7.643293 C.2        1 UNL1     0.1049
     11 C         3.091166   -3.309428   -6.874713 C.2        1 UNL1     0.0801
     12 C         4.698219   -5.305069   -5.634637 C.ar        1 UNL1     0.0753
     13 C         3.749841   -4.557361   -4.866443 C.ar        1 UNL1     0.0305
     14 C         3.007005   -3.440148   -5.445306 C.2        1 UNL1     0.0924
     15 N         2.070687   -2.49385   -7.190916 N.pl3        1 UNL1     -0.3170
     16 C         1.753341   -1.714335   -6.02391 C.3        1 UNL1     0.1275
     17 N         2.172295   -2.5836   -4.863489 N.2        1 UNL1     -0.2557
     18 C         2.693102   -0.512484   -6.013664 C.3        1 UNL1     0.0016
     19 C         2.540646   0.235305   -7.328638 C.3        1 UNL1     0.0026
     20 N         1.153488   0.656028   -7.469398 N.3        1 UNL1     -0.3018
     21 C         0.168268   -0.426591   -7.428803 C.3        1 UNL1     0.0026
     22 C         0.336191   -1.161354   -6.097705 C.3        1 UNL1     0.0016
     23 C         0.962972   1.625105   -8.53017 C.3        1 UNL1     0.0012
     24 C         1.644429   2.955475   -8.173114 C.3        1 UNL1     -0.0339
     25 C         2.441989   3.515717   -9.362267 C.3        1 UNL1     -0.0615
     26 C         0.61251   3.951473   -7.673204 C.3        1 UNL1     -0.0615
     27 C         5.48933   -6.288519   -5.045496 C.ar        1 UNL1     0.1347
     28 C         5.449921   -6.584794   -3.694675 C.ar        1 UNL1     0.0342
     29 C         4.474364   -5.870218   -2.967465 C.ar        1 UNL1     0.1435
     30 C         3.649727   -4.907725   -3.551249 C.ar        1 UNL1     0.0774
     31 O         4.386889   -5.966395   -1.622807 O.3        1 UNL1     -0.4436
     32 C         3.656121   -4.797415   -1.222387 C.3        1 UNL1     0.3143
     33 C         2.870938   -4.381329   -2.449813 C.2        1 UNL1     0.2504
     34 C         6.43623   -7.441475   -2.950773 C.3        1 UNL1     -0.0327
     35 O         2.701502   -5.208882   -0.236157 O.2        1 UNL1     -0.4528
     36 C         2.201204   -2.213649   2.041203 C.3        1 UNL1     0.0854
     37 C         1.738678   -0.75068   1.67608 C.3        1 UNL1     0.0236
     38 C         0.461175   -0.222997   2.489271 C.3        1 UNL1     0.1131
     39 C         -0.846098   -1.110858   2.560054 C.3        1 UNL1     0.0200
     40 C         -1.420304   -1.879466   1.195515 C.3        1 UNL1     0.0661
     41 C         -1.673421   -1.158263   -0.318886 C.3        1 UNL1     0.0091
     42 C         -1.529424   -1.85732   -2.008853 C.3        1 UNL1     0.0661
     43 C         4.875084   -4.936946   -7.061333 C.2        1 UNL1     0.2131
     44 O         5.875461   -5.197799   -7.704714 O.2        1 UNL1     -0.2851
     45 O         6.354702   -7.001552   -5.872632 O.3        1 UNL1     -0.5056
     46 O         1.826206   -3.771968   -2.505203 O.2        1 UNL1     -0.2836
     47 C         -2.656075   -4.135551   -2.820107 C.3        1 UNL1     -0.0566
     48 O         -2.829014   -1.310878   -2.468835 O.3        1 UNL1     -0.3909
     49 C         -0.98649   0.18904   -0.338705 C.3        1 UNL1     -0.0577
     50 O         -0.802441   -3.140248   1.033043 O.3        1 UNL1     -0.3910
     51 O         1.344232   -2.935129   2.897063 O.3        1 UNL1     -0.3753
     52 C         1.945645   -0.436795   0.158322 C.3        1 UNL1     -0.0564
     53 O         0.256644   1.260438   2.389702 O.3        1 UNL1     -0.4608
     54 C         -0.957357   1.895411   2.359051 C.2        1 UNL1     0.3042
     55 O         -1.744916   1.956006   1.415696 O.2        1 UNL1     -0.2512
     56 C         -1.341154   2.522769   3.66895 C.3        1 UNL1     0.0332
     57 C         -0.784873   -1.951917   3.919115 C.3        1 UNL1     -0.0567
     58 C         4.709217   -3.708567   -0.911055 C.3        1 UNL1     0.0210
     59 C         2.007451   -3.716447   3.889811 C.3        1 UNL1     0.0372
     60 C         2.482995   -3.093687   0.874461 C.2        1 UNL1     -0.0208
     61 C         2.13511   -4.360245   0.643049 C.2        1 UNL1     0.0882
     62 H         -0.571813   -3.657303   -2.713102 H        1 UNL1     0.0365
     63 H         0.144396   -4.452571   -4.452303 H        1 UNL1     0.0576
     64 H         -1.565793   -3.579154   -6.862526 H        1 UNL1     0.0615
     65 H         1.067105   -5.241657   -6.613948 H        1 UNL1     0.0622
     66 H         3.162856   -2.078693   2.556042 H        1 UNL1     0.0645
     67 H         2.538498   -0.107403   2.082335 H        1 UNL1     0.0362
     68 H         0.875588   -0.232048   3.508928 H        1 UNL1     0.0741
     69 H         -1.678736   -0.482154   2.846158 H        1 UNL1     0.0359
     70 H         -2.448863   -2.116374   1.528683 H        1 UNL1     0.0600
     71 H         -2.734934   -0.859158   -0.215531 H        1 UNL1     0.0348
     72 H         -1.626153   -2.718397   -1.331722 H        1 UNL1     0.0602
     73 H         3.159891   -2.60148   0.221167 H        1 UNL1     0.0628
     74 H         1.403499   -4.915971   1.230544 H        1 UNL1     0.1022
     75 H         -0.285341   -5.12387   -10.499086 H        1 UNL1     0.0279
     76 H         0.08026   -3.459495   -10.276615 H        1 UNL1     0.0279
     77 H         1.336829   -4.65369   -10.79645 H        1 UNL1     0.0279
     78 H         2.918179   -3.445823   -9.237163 H        1 UNL1     0.1553
     79 H         1.877818   -2.179046   -8.123992 H        1 UNL1     0.1484
     80 H         2.445834   0.127423   -5.15801 H        1 UNL1     0.0317
     81 H         3.732592   -0.829727   -5.877762 H        1 UNL1     0.0317
     82 H         2.85701   -0.378291   -8.184983 H        1 UNL1     0.0428
     83 H         3.220762   1.087196   -7.300825 H        1 UNL1     0.0428
     84 H         -0.868594   -0.077341   -7.456256 H        1 UNL1     0.0428
     85 H         0.250531   -1.087152   -8.302993 H        1 UNL1     0.0428
     86 H         -0.481664   -1.855861   -6.045156 H        1 UNL1     0.0317
     87 H         0.14095   -0.475802   -5.264041 H        1 UNL1     0.0317
     88 H         1.427216   1.228457   -9.442553 H        1 UNL1     0.0429
     89 H         -0.102454   1.772222   -8.749254 H        1 UNL1     0.0429
     90 H         2.333665   2.792689   -7.336055 H        1 UNL1     0.0308
     91 H         1.992989   3.222305   -10.315897 H        1 UNL1     0.0233
     92 H         2.496338   4.605719   -9.311755 H        1 UNL1     0.0233
     93 H         3.478715   3.158138   -9.375384 H        1 UNL1     0.0233
     94 H         1.069994   4.938912   -7.548677 H        1 UNL1     0.0233
     95 H         -0.199109   4.045212   -8.400149 H        1 UNL1     0.0233
     96 H         0.191819   3.641874   -6.712404 H        1 UNL1     0.0233
     97 H         7.392271   -6.943104   -2.820994 H        1 UNL1     0.0280
     98 H         6.087831   -7.691159   -1.940064 H        1 UNL1     0.0280
     99 H         6.607012   -8.376804   -3.508526 H        1 UNL1     0.0280
     100 H         7.004479   -7.507002   -5.416635 H        1 UNL1     0.2922
     101 H         -3.555331   -3.521113   -2.781882 H        1 UNL1     0.0236
     102 H         -2.488574   -4.673802   -1.887791 H        1 UNL1     0.0236
     103 H         -2.884581   -4.920288   -3.560489 H        1 UNL1     0.0236
     104 H         -3.37838   -1.150234   -1.676773 H        1 UNL1     0.2098
     105 H         -0.91862   0.644103   -1.323653 H        1 UNL1     0.0234
     106 H         -1.372894   0.907862   0.383731 H        1 UNL1     0.0234
     107 H         0.0   0.0   0.0 H        1 UNL1     0.0234
     108 H         -0.688141   -3.285881   0.074141 H        1 UNL1     0.2098
     109 H         1.477074   0.512108   -0.137881 H        1 UNL1     0.0234
     110 H         2.999315   -0.434241   -0.140872 H        1 UNL1     0.0234
     111 H         1.489591   -1.205419   -0.479782 H        1 UNL1     0.0234
     112 H         -0.46324   2.982725   4.132689 H        1 UNL1     0.0342
     113 H         -2.147393   3.246004   3.556016 H        1 UNL1     0.0342
     114 H         -1.698195   1.728094   4.338411 H        1 UNL1     0.0342
     115 H         -1.192585   -1.386219   4.7682 H        1 UNL1     0.0234
     116 H         -1.314596   -2.905604   3.875245 H        1 UNL1     0.0234
     117 H         0.243231   -2.149159   4.268454 H        1 UNL1     0.0234
     118 H         5.193395   -3.326203   -1.826684 H        1 UNL1     0.0309
     119 H         4.301399   -2.866339   -0.343131 H        1 UNL1     0.0309
     120 H         5.549589   -4.092615   -0.322507 H        1 UNL1     0.0309
     121 H         2.594325   -4.475895   3.373889 H        1 UNL1     0.0524
     122 H         2.703558   -3.115877   4.498734 H        1 UNL1     0.0524
     123 H         1.2803   -4.186318   4.545986 H        1 UNL1     0.0524
@<TRIPOS>BOND
     1     1     2    1
     2     1    42    1
     3     2     3    2
     4     3     4    1
     5     4     5    2
     6     5     7    1
     7     6    75    1
     8     6    76    1
     9     6    77    1
    10     7     9   am
    11     9    10    1
    12    10    11    2
    13    10    43    1
    14    11    14    1
    15    11    15    1
    16    12    13   ar
    17    12    27   ar
    18    12    43    1
    19    13    14    1
    20    13    30   ar
    21    14    17    2
    22    15    16    1
    23    16    17    1
    24    16    18    1
    25    16    22    1
    26    18    19    1
    27    19    20    1
    28    20    21    1
    29    21    22    1
    30    23    24    1
    31    23    88    1
    32    23    89    1
    33    24    25    1
    34    24    26    1
    35    24    90    1
    36    25    91    1
    37    25    92    1
    38    25    93    1
    39    26    94    1
    40    26    95    1
    41    26    96    1
    42    27    28   ar
    43    28    29   ar
    44    29    30   ar
    45    29    31    1
    46    30    33    1
    47    31    32    1
    48    32    33    1
    49    32    35    1
    50    34    97    1
    51    34    98    1
    52    34    99    1
    53    35    61    1
    54    36    37    1
    55    36    60    1
    56    37    38    1
    57    38    39    1
    58    39    40    1
    59    40    41    1
    60    41    42    1
    61    45   100    1
    62    47   101    1
    63    47   102    1
    64    47   103    1
    65    48   104    1
    66    49   105    1
    67    49   106    1
    68    49   107    1
    69    50   108    1
    70    51    59    1
    71    52   109    1
    72    52   110    1
    73    52   111    1
    74    53    54    1
    75    54    55    2
    76    54    56    1
    77    56   112    1
    78    56   113    1
    79    56   114    1
    80    57   115    1
    81    57   116    1
    82    57   117    1
    83    58   118    1
    84    58   119    1
    85    58   120    1
    86    59   121    1
    87    59   122    1
    88    59   123    1
    89    60    61    2
    90     1    47    1
    91     1    62    1
    92     2    63    1
    93     3    64    1
    94     4    65    1
    95     5     6    1
    96     7     8    2
    97     9    78    1
    98    15    79    1
    99    18    80    1
   100    18    81    1
   101    19    82    1
   102    19    83    1
   103    20    23    1
   104    21    84    1
   105    21    85    1
   106    22    86    1
   107    22    87    1
   108    27    45    1
   109    28    34    1
   110    32    58    1
   111    33    46    2
   112    36    51    1
   113    36    66    1
   114    37    52    1
   115    37    67    1
   116    38    53    1
   117    38    68    1
   118    42    48    1
   119    42    72    1
   120    43    44    2
   121    60    73    1
   122    61    74    1
   123    39    69    1
   124    39    57    1
   125    40    70    1
   126    40    50    1
   127    41    71    1
   128    41    49    1
