@<TRIPOS>MOLECULE
*****
 123 128 0 0 0
SMALL
GASTEIGER

@<TRIPOS>ATOM
     1 C         1.153495   4.191272   2.956068 C.3        1 UNL1     0.0009
     2 C         0.330295   5.404352   4.090887 C.2        1 UNL1     -0.0787
     3 C         -0.092938   6.755952   4.391049 C.2        1 UNL1     -0.0649
     4 C         -1.022872   7.288278   5.701854 C.2        1 UNL1     -0.0542
     5 C         -1.849709   8.328919   6.192246 C.2        1 UNL1     0.0115
     6 C         -2.341446   9.777177   5.920095 C.3        1 UNL1     -0.0348
     7 C         -2.817328   8.030684   7.437942 C.2        1 UNL1     0.2441
     8 O         -2.564005   8.392319   8.578808 O.2        1 UNL1     -0.2702
     9 N         -4.09492   7.557665   7.0913 N.am        1 UNL1     -0.2772
     10 C         -4.08531   6.186234   6.979918 C.2        1 UNL1     0.1049
     11 C         -3.663853   5.698849   5.827072 C.2        1 UNL1     0.0801
     12 C         -3.366663   4.10474   8.16662 C.ar        1 UNL1     0.0753
     13 C         -2.742144   3.714482   6.939313 C.ar        1 UNL1     0.0305
     14 C         -2.983656   4.439122   5.693672 C.2        1 UNL1     0.0924
     15 N         -3.435517   6.321204   4.657857 N.pl3        1 UNL1     -0.3170
     16 C         -3.155016   5.31269   3.670703 C.3        1 UNL1     0.1275
     17 N         -2.574034   4.164023   4.458578 N.2        1 UNL1     -0.2557
     18 C         -4.495469   4.821794   3.132273 C.3        1 UNL1     0.0016
     19 C         -5.274857   6.016244   2.605554 C.3        1 UNL1     0.0026
     20 N         -4.493533   6.659716   1.558413 N.3        1 UNL1     -0.3018
     21 C         -3.161436   7.111666   1.965385 C.3        1 UNL1     0.0026
     22 C         -2.394459   5.895175   2.486721 C.3        1 UNL1     0.0016
     23 C         -5.262421   7.617519   0.788953 C.3        1 UNL1     0.0012
     24 C         -6.294163   6.896194   -0.092498 C.3        1 UNL1     -0.0339
     25 C         -7.272716   6.06455   0.752995 C.3        1 UNL1     -0.0615
     26 C         -7.024783   7.900311   -0.966984 C.3        1 UNL1     -0.0615
     27 C         -3.227985   3.339554   9.322206 C.ar        1 UNL1     0.1347
     28 C         -2.52527   2.148515   9.363051 C.ar        1 UNL1     0.0342
     29 C         -1.878426   1.809454   8.15566 C.ar        1 UNL1     0.1435
     30 C         -1.978568   2.584972   6.999907 C.ar        1 UNL1     0.0774
     31 O         -1.246268   0.625333   8.003215 O.3        1 UNL1     -0.4436
     32 C         -1.148832   0.446556   6.582153 C.3        1 UNL1     0.3143
     33 C         -1.239529   1.842694   6.000101 C.2        1 UNL1     0.2504
     34 C         -2.542201   1.152989   10.489435 C.3        1 UNL1     -0.0327
     35 O         0.170914   -0.036839   6.303133 O.2        1 UNL1     -0.4528
     36 C         -0.144037   -2.183822   3.188754 C.3        1 UNL1     0.0854
     37 C         -0.697983   -1.796803   1.763664 C.3        1 UNL1     0.0236
     38 C         0.309426   -2.077416   0.547881 C.3        1 UNL1     0.1131
     39 C         1.796181   -1.542127   0.620644 C.3        1 UNL1     0.0200
     40 C         2.112697   0.000852   1.16971 C.3        1 UNL1     0.0661
     41 C         1.347411   1.419824   0.642013 C.3        1 UNL1     0.0091
     42 C         0.956306   2.967619   1.545766 C.3        1 UNL1     0.0661
     43 C         -4.240666   5.303887   8.145972 C.2        1 UNL1     0.2131
     44 O         -5.11184   5.516053   8.969852 O.2        1 UNL1     -0.2851
     45 O         -3.830082   3.813589   10.485911 O.3        1 UNL1     -0.5056
     46 O         -0.784829   2.255011   4.956503 O.2        1 UNL1     -0.2836
     47 C         2.695629   4.360234   3.013143 C.3        1 UNL1     -0.0566
     48 O         1.482853   3.856415   0.481855 O.3        1 UNL1     -0.3909
     49 C         0.111669   1.044101   -0.144923 C.3        1 UNL1     -0.0577
     50 O         2.240418   0.015566   2.577259 O.3        1 UNL1     -0.3910
     51 O         1.213771   -2.559433   3.240753 O.3        1 UNL1     -0.3753
     52 C         -1.601385   -0.521676   1.817196 C.3        1 UNL1     -0.0564
     53 O         -0.349802   -2.037409   -0.799763 O.3        1 UNL1     -0.4608
     54 C         0.059005   -2.735411   -1.905927 C.2        1 UNL1     0.3042
     55 O         0.835556   -2.35786   -2.782433 O.2        1 UNL1     -0.2512
     56 C         -0.491914   -4.131335   -1.973727 C.3        1 UNL1     0.0332
     57 C         2.710719   -2.732164   1.173461 C.3        1 UNL1     -0.0567
     58 C         -2.400991   -0.354262   6.155167 C.3        1 UNL1     0.0210
     59 C         1.991092   -2.155032   2.114655 C.3        1 UNL1     0.0372
     60 C         -0.344749   -1.152417   4.242832 C.2        1 UNL1     -0.0208
     61 C         0.494457   -0.689591   5.170339 C.2        1 UNL1     0.0882
     62 H         0.900224   3.389711   3.660386 H        1 UNL1     0.0365
     63 H         0.105208   4.763122   4.945656 H        1 UNL1     0.0576
     64 H         0.025714   7.56667   3.668715 H        1 UNL1     0.0615
     65 H         -1.012048   6.439384   6.390871 H        1 UNL1     0.0622
     66 H         -0.749186   -3.04889   3.494527 H        1 UNL1     0.0645
     67 H         -1.487746   -2.54364   1.57113 H        1 UNL1     0.0362
     68 H         0.389527   -3.17252   0.624383 H        1 UNL1     0.0741
     69 H         2.210214   -1.527764   -0.378745 H        1 UNL1     0.0359
     70 H         3.147074   0.127517   0.796775 H        1 UNL1     0.0600
     71 H         2.038155   1.721589   -0.169633 H        1 UNL1     0.0348
     72 H         1.740221   2.464818   2.130561 H        1 UNL1     0.0602
     73 H         -1.367867   -0.869548   4.264369 H        1 UNL1     0.0628
     74 H         1.567255   -0.884932   5.183852 H        1 UNL1     0.1022
     75 H         -1.804467   10.503409   6.57681 H        1 UNL1     0.0279
     76 H         -2.151236   10.175324   4.925928 H        1 UNL1     0.0279
     77 H         -3.385119   9.936878   6.228223 H        1 UNL1     0.0279
     78 H         -4.366034   7.93661   6.186328 H        1 UNL1     0.1553
     79 H         -3.811115   7.221746   4.423586 H        1 UNL1     0.1484
     80 H         -4.314498   4.082058   2.343092 H        1 UNL1     0.0317
     81 H         -5.068281   4.312002   3.914353 H        1 UNL1     0.0317
     82 H         -5.522448   6.726742   3.407928 H        1 UNL1     0.0428
     83 H         -6.22777   5.643954   2.228186 H        1 UNL1     0.0428
     84 H         -2.565828   7.518552   1.142278 H        1 UNL1     0.0428
     85 H         -3.213137   7.935889   2.690161 H        1 UNL1     0.0428
     86 H         -1.388347   6.234921   2.648891 H        1 UNL1     0.0317
     87 H         -2.285402   5.150718   1.688606 H        1 UNL1     0.0317
     88 H         -5.797874   8.269127   1.491799 H        1 UNL1     0.0429
     89 H         -4.608889   8.261974   0.187 H        1 UNL1     0.0429
     90 H         -5.770023   6.223939   -0.78211 H        1 UNL1     0.0308
     91 H         -6.8851   5.899756   1.762796 H        1 UNL1     0.0233
     92 H         -8.244312   6.559887   0.818199 H        1 UNL1     0.0233
     93 H         -7.462405   5.075075   0.319646 H        1 UNL1     0.0233
     94 H         -7.786234   8.427189   -0.381811 H        1 UNL1     0.0233
     95 H         -6.320465   8.643656   -1.350826 H        1 UNL1     0.0233
     96 H         -7.516254   7.410255   -1.812129 H        1 UNL1     0.0233
     97 H         -2.937401   0.190975   10.177063 H        1 UNL1     0.0280
     98 H         -1.535796   0.952165   10.879402 H        1 UNL1     0.0280
     99 H         -3.171198   1.534965   11.310137 H        1 UNL1     0.0280
     100 H         -3.648704   4.716206   10.680861 H        1 UNL1     0.2922
     101 H         3.000857   5.174385   2.356142 H        1 UNL1     0.0236
     102 H         3.236003   3.43845   2.800323 H        1 UNL1     0.0236
     103 H         3.042138   4.664198   4.015006 H        1 UNL1     0.0236
     104 H         0.877212   4.619846   0.408763 H        1 UNL1     0.2098
     105 H         -0.801211   1.526702   0.195017 H        1 UNL1     0.0234
     106 H         0.212064   1.14424   -1.22558 H        1 UNL1     0.0234
     107 H         0.0   0.0   0.0 H        1 UNL1     0.0234
     108 H         2.886486   -0.676391   2.817174 H        1 UNL1     0.2098
     109 H         -1.7309   -0.146363   2.841929 H        1 UNL1     0.0234
     110 H         -1.241664   0.287992   1.173161 H        1 UNL1     0.0234
     111 H         -2.614147   -0.727308   1.445744 H        1 UNL1     0.0234
     112 H         -1.585691   -4.100491   -1.966942 H        1 UNL1     0.0342
     113 H         -0.121784   -4.676019   -2.841003 H        1 UNL1     0.0342
     114 H         -0.164711   -4.673311   -1.07575 H        1 UNL1     0.0342
     115 H         3.399901   -3.108439   0.404935 H        1 UNL1     0.0234
     116 H         3.307984   -2.463957   2.047183 H        1 UNL1     0.0234
     117 H         2.142964   -3.646718   1.416744 H        1 UNL1     0.0234
     118 H         -2.964112   0.15351   5.352628 H        1 UNL1     0.0309
     119 H         -2.170041   -1.376487   5.839066 H        1 UNL1     0.0309
     120 H         -3.136959   -0.445176   6.961512 H        1 UNL1     0.0309
     121 H         2.975805   -1.865573   2.48059 H        1 UNL1     0.0524
     122 H         2.133829   -2.973236   1.389254 H        1 UNL1     0.0524
     123 H         1.516751   -1.31693   1.611982 H        1 UNL1     0.0524
@<TRIPOS>BOND
     1     1     2    1
     2     1    42    1
     3     2     3    2
     4     3     4    1
     5     4     5    2
     6     5     7    1
     7     6    75    1
     8     6    76    1
     9     6    77    1
    10     7     9   am
    11     9    10    1
    12    10    11    2
    13    10    43    1
    14    11    14    1
    15    11    15    1
    16    12    13   ar
    17    12    27   ar
    18    12    43    1
    19    13    14    1
    20    13    30   ar
    21    14    17    2
    22    15    16    1
    23    16    17    1
    24    16    18    1
    25    16    22    1
    26    18    19    1
    27    19    20    1
    28    20    21    1
    29    21    22    1
    30    23    24    1
    31    23    88    1
    32    23    89    1
    33    24    25    1
    34    24    26    1
    35    24    90    1
    36    25    91    1
    37    25    92    1
    38    25    93    1
    39    26    94    1
    40    26    95    1
    41    26    96    1
    42    27    28   ar
    43    28    29   ar
    44    29    30   ar
    45    29    31    1
    46    30    33    1
    47    31    32    1
    48    32    33    1
    49    32    35    1
    50    34    97    1
    51    34    98    1
    52    34    99    1
    53    35    61    1
    54    36    37    1
    55    36    60    1
    56    37    38    1
    57    38    39    1
    58    39    40    1
    59    40    41    1
    60    41    42    1
    61    45   100    1
    62    47   101    1
    63    47   102    1
    64    47   103    1
    65    48   104    1
    66    49   105    1
    67    49   106    1
    68    49   107    1
    69    50   108    1
    70    51    59    1
    71    52   109    1
    72    52   110    1
    73    52   111    1
    74    53    54    1
    75    54    55    2
    76    54    56    1
    77    56   112    1
    78    56   113    1
    79    56   114    1
    80    57   115    1
    81    57   116    1
    82    57   117    1
    83    58   118    1
    84    58   119    1
    85    58   120    1
    86    59   121    1
    87    59   122    1
    88    59   123    1
    89    60    61    2
    90     1    47    1
    91     1    62    1
    92     2    63    1
    93     3    64    1
    94     4    65    1
    95     5     6    1
    96     7     8    2
    97     9    78    1
    98    15    79    1
    99    18    80    1
   100    18    81    1
   101    19    82    1
   102    19    83    1
   103    20    23    1
   104    21    84    1
   105    21    85    1
   106    22    86    1
   107    22    87    1
   108    27    45    1
   109    28    34    1
   110    32    58    1
   111    33    46    2
   112    36    51    1
   113    36    66    1
   114    37    52    1
   115    37    67    1
   116    38    53    1
   117    38    68    1
   118    42    48    1
   119    42    72    1
   120    43    44    2
   121    60    73    1
   122    61    74    1
   123    39    69    1
   124    39    57    1
   125    40    70    1
   126    40    50    1
   127    41    71    1
   128    41    49    1
