@<TRIPOS>MOLECULE
*****
 123 128 0 0 0
SMALL
GASTEIGER

@<TRIPOS>ATOM
     1 C         0.618765   -4.392434   1.634971 C.3        1 UNL1     0.0009
     2 C         1.057977   -5.213087   3.238298 C.2        1 UNL1     -0.0787
     3 C         2.051531   -5.627741   4.206264 C.2        1 UNL1     -0.0649
     4 C         1.794818   -6.327849   5.726233 C.2        1 UNL1     -0.0542
     5 C         2.365148   -6.585072   6.997311 C.2        1 UNL1     0.0115
     6 C         3.685299   -6.538977   7.814868 C.3        1 UNL1     -0.0348
     7 C         1.397531   -6.965984   8.220263 C.2        1 UNL1     0.2441
     8 O         1.254788   -8.111964   8.623846 O.2        1 UNL1     -0.2702
     9 N         0.92756   -5.869023   8.9632 N.am        1 UNL1     -0.2772
     10 C         -0.233062   -5.377219   8.411467 C.2        1 UNL1     0.1049
     11 C         -0.087845   -4.544268   7.39691 C.2        1 UNL1     0.0801
     12 C         -2.479128   -6.079537   7.56337 C.ar        1 UNL1     0.0753
     13 C         -2.182736   -5.324928   6.383825 C.ar        1 UNL1     0.0305
     14 C         -1.032525   -4.426087   6.319417 C.2        1 UNL1     0.0924
     15 N         1.013725   -3.926096   6.937636 N.pl3        1 UNL1     -0.3170
     16 C         0.603045   -2.993771   5.921582 C.3        1 UNL1     0.1275
     17 N         -0.665469   -3.584992   5.356735 N.2        1 UNL1     -0.2557
     18 C         0.191722   -1.706136   6.629052 C.3        1 UNL1     0.0016
     19 C         1.353749   -1.22943   7.485808 C.3        1 UNL1     0.0026
     20 N         2.508889   -1.009196   6.626636 N.3        1 UNL1     -0.3018
     21 C         2.942408   -2.176709   5.856349 C.3        1 UNL1     0.0026
     22 C         1.761295   -2.635964   4.999639 C.3        1 UNL1     0.0016
     23 C         3.57057   -0.275416   7.286214 C.3        1 UNL1     0.0012
     24 C         3.728925   1.120107   6.662358 C.3        1 UNL1     -0.0339
     25 C         4.030903   1.032318   5.157313 C.3        1 UNL1     -0.0615
     26 C         2.491123   1.956522   6.936284 C.3        1 UNL1     -0.0615
     27 C         -3.64196   -6.84015   7.660368 C.ar        1 UNL1     0.1347
     28 C         -4.599151   -6.892378   6.662817 C.ar        1 UNL1     0.0342
     29 C         -4.262738   -6.180703   5.491702 C.ar        1 UNL1     0.1435
     30 C         -3.084524   -5.443598   5.366372 C.ar        1 UNL1     0.0774
     31 O         -5.139955   -6.044354   4.473417 O.3        1 UNL1     -0.4436
     32 C         -4.655957   -4.918216   3.726135 C.3        1 UNL1     0.3143
     33 C         -3.180925   -4.825239   4.060575 C.2        1 UNL1     0.2504
     34 C         -5.977516   -7.478204   6.79327 C.3        1 UNL1     -0.0327
     35 O         -4.748199   -5.25736   2.336989 O.2        1 UNL1     -0.4528
     36 C         -5.322435   -1.984239   0.50259 C.3        1 UNL1     0.0854
     37 C         -4.441451   -0.676042   0.499416 C.3        1 UNL1     0.0236
     38 C         -3.991873   -0.167506   -0.953517 C.3        1 UNL1     0.1131
     39 C         -3.31265   -1.177828   -1.963555 C.3        1 UNL1     0.0200
     40 C         -2.141084   -2.241195   -1.435236 C.3        1 UNL1     0.0661
     41 C         -0.778065   -1.838157   -0.509305 C.3        1 UNL1     0.0091
     42 C         0.12792   -2.806198   0.758565 C.3        1 UNL1     0.0661
     43 C         -1.551157   -5.954331   8.714653 C.2        1 UNL1     0.2131
     44 O         -1.866619   -6.204938   9.863747 O.2        1 UNL1     -0.2851
     45 O         -3.832733   -7.581347   8.8247 O.3        1 UNL1     -0.5056
     46 O         -2.283904   -4.36466   3.390446 O.2        1 UNL1     -0.2836
     47 C         0.990246   -5.310694   0.439654 C.3        1 UNL1     -0.0566
     48 O         1.466246   -2.509888   0.192703 O.3        1 UNL1     -0.3909
     49 C         -0.961352   -0.444012   0.047703 C.3        1 UNL1     -0.0577
     50 O         -2.727907   -3.427857   -0.940062 O.3        1 UNL1     -0.3910
     51 O         -5.459258   -2.637831   -0.738993 O.3        1 UNL1     -0.3753
     52 C         -3.483783   -0.616515   1.734032 C.3        1 UNL1     -0.0564
     53 O         -3.468391   1.238985   -0.962124 O.3        1 UNL1     -0.4608
     54 C         -4.113486   2.32424   -1.495047 C.2        1 UNL1     0.3042
     55 O         -4.351332   2.542966   -2.682239 O.2        1 UNL1     -0.2512
     56 C         -4.611733   3.294652   -0.462204 C.3        1 UNL1     0.0332
     57 C         -4.4606   -1.74861   -2.919899 C.3        1 UNL1     -0.0567
     58 C         -5.375952   -3.673524   4.295239 C.3        1 UNL1     0.0210
     59 C         -4.513819   -3.680069   -0.975109 C.3        1 UNL1     0.0372
     60 C         -4.908231   -3.018928   1.489005 C.2        1 UNL1     -0.0208
     61 C         -4.773581   -4.338754   1.352355 C.2        1 UNL1     0.0882
     62 H         -0.440201   -4.575902   1.853239 H        1 UNL1     0.0365
     63 H         0.078833   -5.578469   3.554912 H        1 UNL1     0.0576
     64 H         3.104926   -5.360922   4.095478 H        1 UNL1     0.0615
     65 H         0.74316   -6.625991   5.701566 H        1 UNL1     0.0622
     66 H         -6.318304   -1.645587   0.821348 H        1 UNL1     0.0645
     67 H         -5.142911   0.120294   0.80333 H        1 UNL1     0.0362
     68 H         -4.979935   0.05561   -1.384186 H        1 UNL1     0.0741
     69 H         -2.79311   -0.611933   -2.725296 H        1 UNL1     0.0359
     70 H         -1.698915   -2.535591   -2.406254 H        1 UNL1     0.0600
     71 H         -0.043037   -1.654156   -1.317286 H        1 UNL1     0.0348
     72 H         -0.448111   -3.537441   0.173083 H        1 UNL1     0.0602
     73 H         -4.832031   -2.574457   2.450196 H        1 UNL1     0.0628
     74 H         -4.779951   -4.863561   0.396439 H        1 UNL1     0.1022
     75 H         4.303902   -5.660214   7.511323 H        1 UNL1     0.0279
     76 H         3.586256   -6.396065   8.88857 H        1 UNL1     0.0279
     77 H         4.361967   -7.372874   7.577305 H        1 UNL1     0.0279
     78 H         1.617572   -5.121006   8.942426 H        1 UNL1     0.1553
     79 H         1.852072   -3.808694   7.476455 H        1 UNL1     0.1484
     80 H         -0.084788   -0.957528   5.876792 H        1 UNL1     0.0317
     81 H         -0.695087   -1.867647   7.251253 H        1 UNL1     0.0317
     82 H         1.587934   -1.944225   8.28839 H        1 UNL1     0.0428
     83 H         1.038372   -0.311386   7.98258 H        1 UNL1     0.0428
     84 H         3.760069   -1.964214   5.160584 H        1 UNL1     0.0428
     85 H         3.342659   -2.968486   6.504582 H        1 UNL1     0.0428
     86 H         2.151303   -3.402351   4.355796 H        1 UNL1     0.0317
     87 H         1.473015   -1.840512   4.301609 H        1 UNL1     0.0317
     88 H         3.298274   -0.156897   8.343144 H        1 UNL1     0.0429
     89 H         4.516574   -0.831353   7.258207 H        1 UNL1     0.0429
     90 H         4.557991   1.641807   7.154997 H        1 UNL1     0.0308
     91 H         4.948732   0.467618   4.968091 H        1 UNL1     0.0233
     92 H         3.202692   0.559745   4.624068 H        1 UNL1     0.0233
     93 H         4.165119   2.020078   4.699983 H        1 UNL1     0.0233
     94 H         2.615904   2.522659   7.865668 H        1 UNL1     0.0233
     95 H         2.336383   2.67206   6.123866 H        1 UNL1     0.0233
     96 H         1.599275   1.330593   7.030027 H        1 UNL1     0.0233
     97 H         -6.752548   -6.74672   6.584735 H        1 UNL1     0.0280
     98 H         -6.145094   -8.302897   6.088249 H        1 UNL1     0.0280
     99 H         -6.123481   -7.853305   7.819471 H        1 UNL1     0.0280
     100 H         -4.011748   -7.06635   9.591743 H        1 UNL1     0.2922
     101 H         0.11285   -5.873611   0.121916 H        1 UNL1     0.0236
     102 H         1.840214   -5.960246   0.646101 H        1 UNL1     0.0236
     103 H         1.288655   -4.731708   -0.450245 H        1 UNL1     0.0236
     104 H         2.133603   -2.861328   0.814069 H        1 UNL1     0.2098
     105 H         -1.645017   0.180765   -0.521567 H        1 UNL1     0.0234
     106 H         -1.209431   -0.40638   1.108348 H        1 UNL1     0.0234
     107 H         0.0   0.0   0.0 H        1 UNL1     0.0234
     108 H         -3.67115   -3.412356   -1.19269 H        1 UNL1     0.2098
     109 H         -2.44482   -0.854547   1.466435 H        1 UNL1     0.0234
     110 H         -3.51617   0.344872   2.257894 H        1 UNL1     0.0234
     111 H         -3.767898   -1.347984   2.502262 H        1 UNL1     0.0234
     112 H         -5.587759   2.97123   -0.08788 H        1 UNL1     0.0342
     113 H         -3.903058   3.423191   0.354558 H        1 UNL1     0.0342
     114 H         -4.743557   4.272503   -0.945519 H        1 UNL1     0.0342
     115 H         -4.07565   -1.99188   -3.91981 H        1 UNL1     0.0234
     116 H         -4.957598   -2.640613   -2.533412 H        1 UNL1     0.0234
     117 H         -5.238184   -1.005141   -3.165985 H        1 UNL1     0.0234
     118 H         -5.96177   -3.911152   5.200422 H        1 UNL1     0.0309
     119 H         -4.693905   -2.846553   4.516897 H        1 UNL1     0.0309
     120 H         -6.127005   -3.270938   3.6068 H        1 UNL1     0.0309
     121 H         -3.91807   -3.394678   -1.841706 H        1 UNL1     0.0524
     122 H         -3.822072   -3.817373   -0.127364 H        1 UNL1     0.0524
     123 H         -5.027983   -4.61776   -1.166066 H        1 UNL1     0.0524
@<TRIPOS>BOND
     1     1     2    1
     2     1    42    1
     3     2     3    2
     4     3     4    1
     5     4     5    2
     6     5     7    1
     7     6    75    1
     8     6    76    1
     9     6    77    1
    10     7     9   am
    11     9    10    1
    12    10    11    2
    13    10    43    1
    14    11    14    1
    15    11    15    1
    16    12    13   ar
    17    12    27   ar
    18    12    43    1
    19    13    14    1
    20    13    30   ar
    21    14    17    2
    22    15    16    1
    23    16    17    1
    24    16    18    1
    25    16    22    1
    26    18    19    1
    27    19    20    1
    28    20    21    1
    29    21    22    1
    30    23    24    1
    31    23    88    1
    32    23    89    1
    33    24    25    1
    34    24    26    1
    35    24    90    1
    36    25    91    1
    37    25    92    1
    38    25    93    1
    39    26    94    1
    40    26    95    1
    41    26    96    1
    42    27    28   ar
    43    28    29   ar
    44    29    30   ar
    45    29    31    1
    46    30    33    1
    47    31    32    1
    48    32    33    1
    49    32    35    1
    50    34    97    1
    51    34    98    1
    52    34    99    1
    53    35    61    1
    54    36    37    1
    55    36    60    1
    56    37    38    1
    57    38    39    1
    58    39    40    1
    59    40    41    1
    60    41    42    1
    61    45   100    1
    62    47   101    1
    63    47   102    1
    64    47   103    1
    65    48   104    1
    66    49   105    1
    67    49   106    1
    68    49   107    1
    69    50   108    1
    70    51    59    1
    71    52   109    1
    72    52   110    1
    73    52   111    1
    74    53    54    1
    75    54    55    2
    76    54    56    1
    77    56   112    1
    78    56   113    1
    79    56   114    1
    80    57   115    1
    81    57   116    1
    82    57   117    1
    83    58   118    1
    84    58   119    1
    85    58   120    1
    86    59   121    1
    87    59   122    1
    88    59   123    1
    89    60    61    2
    90     1    47    1
    91     1    62    1
    92     2    63    1
    93     3    64    1
    94     4    65    1
    95     5     6    1
    96     7     8    2
    97     9    78    1
    98    15    79    1
    99    18    80    1
   100    18    81    1
   101    19    82    1
   102    19    83    1
   103    20    23    1
   104    21    84    1
   105    21    85    1
   106    22    86    1
   107    22    87    1
   108    27    45    1
   109    28    34    1
   110    32    58    1
   111    33    46    2
   112    36    51    1
   113    36    66    1
   114    37    52    1
   115    37    67    1
   116    38    53    1
   117    38    68    1
   118    42    48    1
   119    42    72    1
   120    43    44    2
   121    60    73    1
   122    61    74    1
   123    39    69    1
   124    39    57    1
   125    40    70    1
   126    40    50    1
   127    41    71    1
   128    41    49    1
