@<TRIPOS>MOLECULE
*****
 123 128 0 0 0
SMALL
GASTEIGER

@<TRIPOS>ATOM
     1 C         0.940162   4.119561   0.336751 C.3        1 UNL1     0.0009
     2 C         0.457677   5.488025   -0.817177 C.2        1 UNL1     -0.0787
     3 C         0.803238   6.436057   -1.855382 C.2        1 UNL1     -0.0649
     4 C         -0.22979   7.481839   -2.695353 C.2        1 UNL1     -0.0542
     5 C         -0.386968   8.268055   -3.863359 C.2        1 UNL1     0.0115
     6 C         0.354363   8.836878   -5.104403 C.3        1 UNL1     -0.0348
     7 C         -1.861042   8.739156   -4.290161 C.2        1 UNL1     0.2441
     8 O         -2.280837   9.871244   -4.0935 O.2        1 UNL1     -0.2702
     9 N         -2.542533   7.84713   -5.136336 N.am        1 UNL1     -0.2772
     10 C         -3.232   6.914634   -4.39579 C.2        1 UNL1     0.1049
     11 C         -2.534229   5.876562   -3.971827 C.2        1 UNL1     0.0801
     12 C         -4.814468   6.685454   -2.472094 C.ar        1 UNL1     0.0753
     13 C         -3.910927   5.707519   -1.946866 C.ar        1 UNL1     0.0305
     14 C         -2.808345   5.17729   -2.745754 C.2        1 UNL1     0.0924
     15 N         -1.302061   5.464985   -4.316635 N.pl3        1 UNL1     -0.3170
     16 C         -1.075997   4.186777   -3.695882 C.3        1 UNL1     0.1275
     17 N         -1.943666   4.207606   -2.461201 N.2        1 UNL1     -0.2557
     18 C         -1.673128   3.125696   -4.615253 C.3        1 UNL1     0.0016
     19 C         -1.051632   3.272204   -5.99506 C.3        1 UNL1     0.0026
     20 N         0.391128   3.111929   -5.877653 N.3        1 UNL1     -0.3018
     21 C         1.048667   4.049847   -4.965338 C.3        1 UNL1     0.0026
     22 C         0.412112   3.882339   -3.584529 C.3        1 UNL1     0.0016
     23 C         1.045059   2.935493   -7.159015 C.3        1 UNL1     0.0012
     24 C         0.700237   1.561594   -7.755047 C.3        1 UNL1     -0.0339
     25 C         -0.59167   1.617652   -8.586846 C.3        1 UNL1     -0.0615
     26 C         1.869287   1.040332   -8.572598 C.3        1 UNL1     -0.0615
     27 C         -5.932426   7.096629   -1.750137 C.ar        1 UNL1     0.1347
     28 C         -6.271287   6.574293   -0.514666 C.ar        1 UNL1     0.0342
     29 C         -5.340921   5.648845   0.004112 C.ar        1 UNL1     0.1435
     30 C         -4.197625   5.254315   -0.691905 C.ar        1 UNL1     0.0774
     31 O         -5.584441   4.969709   1.14625 O.3        1 UNL1     -0.4436
     32 C         -4.701121   3.839394   1.091432 C.3        1 UNL1     0.3143
     33 C         -3.582874   4.255456   0.157286 C.2        1 UNL1     0.2504
     34 C         -7.577478   6.778944   0.200933 C.3        1 UNL1     -0.0327
     35 O         -4.122318   3.687561   2.393426 O.2        1 UNL1     -0.4528
     36 C         -3.435418   -0.023296   2.800607 C.3        1 UNL1     0.0854
     37 C         -2.561466   -0.979377   1.900807 C.3        1 UNL1     0.0236
     38 C         -1.410941   -1.777892   2.682094 C.3        1 UNL1     0.1131
     39 C         -0.409012   -0.992455   3.620976 C.3        1 UNL1     0.0200
     40 C         0.253285   0.456195   3.125786 C.3        1 UNL1     0.0661
     41 C         1.008197   0.745439   1.63446 C.3        1 UNL1     0.0091
     42 C         1.082969   2.268105   0.614019 C.3        1 UNL1     0.0661
     43 C         -4.570775   7.18173   -3.849259 C.2        1 UNL1     0.2131
     44 O         -5.433229   7.68596   -4.545436 O.2        1 UNL1     -0.2851
     45 O         -6.735954   8.085915   -2.313248 O.3        1 UNL1     -0.5056
     46 O         -2.436619   3.866351   0.133805 O.2        1 UNL1     -0.2836
     47 C         1.775326   4.68043   1.519083 C.3        1 UNL1     -0.0566
     48 O         2.545498   2.179747   0.385286 O.3        1 UNL1     -0.3909
     49 C         0.691727   -0.398684   0.69727 C.3        1 UNL1     -0.0577
     50 O         -0.599363   1.534923   3.452987 O.3        1 UNL1     -0.3910
     51 O         -2.994702   0.14561   4.129016 O.3        1 UNL1     -0.3753
     52 C         -2.338852   -0.389161   0.47006 C.3        1 UNL1     -0.0564
     53 O         -0.835235   -2.921128   1.898576 O.3        1 UNL1     -0.4608
     54 C         -0.152148   -3.984267   2.428726 C.2        1 UNL1     0.3042
     55 O         1.064575   -4.167046   2.42503 O.2        1 UNL1     -0.2512
     56 C         -1.035261   -4.978178   3.127986 C.3        1 UNL1     0.0332
     57 C         -0.977003   -1.080758   5.113545 C.3        1 UNL1     -0.0567
     58 C         -5.500417   2.691177   0.432453 C.3        1 UNL1     0.0210
     59 C         -3.80122   -0.49796   5.114516 C.3        1 UNL1     0.0372
     60 C         -3.652408   1.339785   2.243754 C.2        1 UNL1     -0.0208
     61 C         -3.579685   2.535092   2.830864 C.2        1 UNL1     0.0882
     62 H         -0.099259   4.071017   0.683103 H        1 UNL1     0.0365
     63 H         -0.576698   5.657445   -0.510851 H        1 UNL1     0.0576
     64 H         1.791701   6.440926   -2.320166 H        1 UNL1     0.0615
     65 H         -1.152386   7.463456   -2.108871 H        1 UNL1     0.0622
     66 H         -4.425926   -0.498907   2.827722 H        1 UNL1     0.0645
     67 H         -3.251367   -1.797496   1.630106 H        1 UNL1     0.0362
     68 H         -2.033706   -2.381379   3.35995 H        1 UNL1     0.0741
     69 H         0.464939   -1.607517   3.78925 H        1 UNL1     0.0359
     70 H         1.091266   0.538225   3.844201 H        1 UNL1     0.0600
     71 H         2.059196   0.521504   1.903185 H        1 UNL1     0.0348
     72 H         0.812668   2.595794   1.628352 H        1 UNL1     0.0602
     73 H         -4.024496   1.257077   1.252816 H        1 UNL1     0.0628
     74 H         -3.156584   2.711361   3.820386 H        1 UNL1     0.1022
     75 H         1.326095   9.297563   -4.803502 H        1 UNL1     0.0279
     76 H         0.660616   8.116009   -5.859139 H        1 UNL1     0.0279
     77 H         -0.164126   9.697397   -5.552038 H        1 UNL1     0.0279
     78 H         -1.872316   7.344481   -5.714463 H        1 UNL1     0.1553
     79 H         -0.833567   5.752106   -5.156282 H        1 UNL1     0.1484
     80 H         -1.477007   2.133602   -4.190927 H        1 UNL1     0.0317
     81 H         -2.76161   3.230116   -4.678142 H        1 UNL1     0.0317
     82 H         -1.306404   4.237938   -6.455887 H        1 UNL1     0.0428
     83 H         -1.492723   2.507356   -6.63498 H        1 UNL1     0.0428
     84 H         2.11803   3.857351   -4.834115 H        1 UNL1     0.0428
     85 H         1.007397   5.081813   -5.340386 H        1 UNL1     0.0428
     86 H         1.003304   4.482929   -2.918368 H        1 UNL1     0.0317
     87 H         0.575177   2.861441   -3.218095 H        1 UNL1     0.0317
     88 H         0.67751   3.714148   -7.840116 H        1 UNL1     0.0429
     89 H         2.13122   3.068995   -7.074126 H        1 UNL1     0.0429
     90 H         0.559905   0.841527   -6.940171 H        1 UNL1     0.0308
     91 H         -1.257703   0.784342   -8.343745 H        1 UNL1     0.0233
     92 H         -1.119189   2.559386   -8.418113 H        1 UNL1     0.0233
     93 H         -0.396888   1.565165   -9.664872 H        1 UNL1     0.0233
     94 H         1.518409   0.311831   -9.311521 H        1 UNL1     0.0233
     95 H         2.345369   1.864377   -9.111354 H        1 UNL1     0.0233
     96 H         2.616005   0.555847   -7.93726 H        1 UNL1     0.0233
     97 H         -8.082163   5.839212   0.404473 H        1 UNL1     0.0280
     98 H         -7.443402   7.265399   1.175941 H        1 UNL1     0.0280
     99 H         -8.243689   7.401997   -0.417988 H        1 UNL1     0.0280
     100 H         -6.267419   8.83941   -2.626843 H        1 UNL1     0.2922
     101 H         1.159453   4.721853   2.417214 H        1 UNL1     0.0236
     102 H         2.240827   5.640278   1.297755 H        1 UNL1     0.0236
     103 H         2.61426   4.016017   1.785425 H        1 UNL1     0.0236
     104 H         2.979074   2.796466   1.007089 H        1 UNL1     0.2098
     105 H         1.547154   -0.772896   0.140475 H        1 UNL1     0.0234
     106 H         0.14797   -1.225053   1.154839 H        1 UNL1     0.0234
     107 H         -0.0   0.0   0.0 H        1 UNL1     0.0234
     108 H         -0.035829   2.322847   3.576973 H        1 UNL1     0.2098
     109 H         -3.284206   -0.239915   -0.070073 H        1 UNL1     0.0234
     110 H         -1.767665   0.545436   0.474106 H        1 UNL1     0.0234
     111 H         -1.741238   -1.063662   -0.157517 H        1 UNL1     0.0234
     112 H         -0.427774   -5.787355   3.544566 H        1 UNL1     0.0342
     113 H         -1.646389   -4.511625   3.899151 H        1 UNL1     0.0342
     114 H         -1.715055   -5.416062   2.384143 H        1 UNL1     0.0342
     115 H         -0.275531   -0.653628   5.843398 H        1 UNL1     0.0234
     116 H         -1.938918   -0.583345   5.252645 H        1 UNL1     0.0234
     117 H         -1.070912   -2.114618   5.488053 H        1 UNL1     0.0234
     118 H         -5.739201   1.887018   1.150308 H        1 UNL1     0.0309
     119 H         -6.424742   3.030453   -0.04579 H        1 UNL1     0.0309
     120 H         -4.928721   2.173611   -0.345619 H        1 UNL1     0.0309
     121 H         -4.344694   -1.30331   4.621157 H        1 UNL1     0.0524
     122 H         -3.197607   -0.949272   5.919504 H        1 UNL1     0.0524
     123 H         -4.498004   0.211541   5.551775 H        1 UNL1     0.0524
@<TRIPOS>BOND
     1     1     2    1
     2     1    42    1
     3     2     3    2
     4     3     4    1
     5     4     5    2
     6     5     7    1
     7     6    75    1
     8     6    76    1
     9     6    77    1
    10     7     9   am
    11     9    10    1
    12    10    11    2
    13    10    43    1
    14    11    14    1
    15    11    15    1
    16    12    13   ar
    17    12    27   ar
    18    12    43    1
    19    13    14    1
    20    13    30   ar
    21    14    17    2
    22    15    16    1
    23    16    17    1
    24    16    18    1
    25    16    22    1
    26    18    19    1
    27    19    20    1
    28    20    21    1
    29    21    22    1
    30    23    24    1
    31    23    88    1
    32    23    89    1
    33    24    25    1
    34    24    26    1
    35    24    90    1
    36    25    91    1
    37    25    92    1
    38    25    93    1
    39    26    94    1
    40    26    95    1
    41    26    96    1
    42    27    28   ar
    43    28    29   ar
    44    29    30   ar
    45    29    31    1
    46    30    33    1
    47    31    32    1
    48    32    33    1
    49    32    35    1
    50    34    97    1
    51    34    98    1
    52    34    99    1
    53    35    61    1
    54    36    37    1
    55    36    60    1
    56    37    38    1
    57    38    39    1
    58    39    40    1
    59    40    41    1
    60    41    42    1
    61    45   100    1
    62    47   101    1
    63    47   102    1
    64    47   103    1
    65    48   104    1
    66    49   105    1
    67    49   106    1
    68    49   107    1
    69    50   108    1
    70    51    59    1
    71    52   109    1
    72    52   110    1
    73    52   111    1
    74    53    54    1
    75    54    55    2
    76    54    56    1
    77    56   112    1
    78    56   113    1
    79    56   114    1
    80    57   115    1
    81    57   116    1
    82    57   117    1
    83    58   118    1
    84    58   119    1
    85    58   120    1
    86    59   121    1
    87    59   122    1
    88    59   123    1
    89    60    61    2
    90     1    47    1
    91     1    62    1
    92     2    63    1
    93     3    64    1
    94     4    65    1
    95     5     6    1
    96     7     8    2
    97     9    78    1
    98    15    79    1
    99    18    80    1
   100    18    81    1
   101    19    82    1
   102    19    83    1
   103    20    23    1
   104    21    84    1
   105    21    85    1
   106    22    86    1
   107    22    87    1
   108    27    45    1
   109    28    34    1
   110    32    58    1
   111    33    46    2
   112    36    51    1
   113    36    66    1
   114    37    52    1
   115    37    67    1
   116    38    53    1
   117    38    68    1
   118    42    48    1
   119    42    72    1
   120    43    44    2
   121    60    73    1
   122    61    74    1
   123    39    69    1
   124    39    57    1
   125    40    70    1
   126    40    50    1
   127    41    71    1
   128    41    49    1
