@<TRIPOS>MOLECULE
*****
 123 128 0 0 0
SMALL
GASTEIGER

@<TRIPOS>ATOM
     1 C         2.474084   -2.058938   -4.432993 C.3        1 UNL1     0.0009
     2 C         2.646826   -1.964344   -6.276427 C.2        1 UNL1     -0.0787
     3 C         2.342816   -2.480169   -7.594588 C.2        1 UNL1     -0.0649
     4 C         2.752526   -1.809823   -9.094299 C.2        1 UNL1     -0.0542
     5 C         2.447447   -1.785703   -10.477564 C.2        1 UNL1     0.0115
     6 C         1.625739   -2.484504   -11.595507 C.3        1 UNL1     -0.0348
     7 C         2.973968   -0.558096   -11.367927 C.2        1 UNL1     0.2441
     8 O         3.944154   -0.641147   -12.108446 O.2        1 UNL1     -0.2702
     9 N         2.095189   0.536761   -11.439946 N.am        1 UNL1     -0.2772
     10 C         2.324878   1.406187   -10.398474 C.2        1 UNL1     0.1049
     11 C         1.74871   1.103086   -9.249395 C.2        1 UNL1     0.0801
     12 C         4.148511   2.633422   -9.204494 C.ar        1 UNL1     0.0753
     13 C         3.603423   2.104131   -7.991507 C.ar        1 UNL1     0.0305
     14 C         2.307799   1.429054   -7.96544 C.2        1 UNL1     0.0924
     15 N         0.798573   0.193512   -8.972911 N.pl3        1 UNL1     -0.3170
     16 C         0.395655   0.381071   -7.604433 C.3        1 UNL1     0.1275
     17 N         1.610789   0.969618   -6.930055 N.2        1 UNL1     -0.2557
     18 C         -0.66729   1.475463   -7.591976 C.3        1 UNL1     0.0016
     19 C         -1.794317   1.069465   -8.528227 C.3        1 UNL1     0.0026
     20 N         -2.344483   -0.200497   -8.07486 N.3        1 UNL1     -0.3018
     21 C         -1.382378   -1.301511   -7.994283 C.3        1 UNL1     0.0026
     22 C         -0.261513   -0.873906   -7.045226 C.3        1 UNL1     0.0016
     23 C         -3.605665   -0.527511   -8.709781 C.3        1 UNL1     0.0012
     24 C         -4.177321   0.700241   -9.436135 C.3        1 UNL1     -0.0339
     25 C         -4.351053   0.433358   -10.940345 C.3        1 UNL1     -0.0615
     26 C         -5.483843   1.126364   -8.789452 C.3        1 UNL1     -0.0615
     27 C         5.324277   3.380206   -9.201914 C.ar        1 UNL1     0.1347
     28 C         6.019485   3.695745   -8.04815 C.ar        1 UNL1     0.0342
     29 C         5.491022   3.122912   -6.87182 C.ar        1 UNL1     0.1435
     30 C         4.33417   2.342623   -6.863834 C.ar        1 UNL1     0.0774
     31 O         5.990922   3.426439   -5.654044 O.3        1 UNL1     -0.4436
     32 C         4.949794   3.064755   -4.734201 C.3        1 UNL1     0.3143
     33 C         4.115027   2.033515   -5.466267 C.2        1 UNL1     0.2504
     34 C         7.138096   4.694076   -7.937953 C.3        1 UNL1     -0.0327
     35 O         5.570345   2.39255   -3.631337 O.2        1 UNL1     -0.4528
     36 C         3.396124   3.127442   -0.607964 C.3        1 UNL1     0.0854
     37 C         1.86062   2.839621   -0.391382 C.3        1 UNL1     0.0236
     38 C         1.512397   1.976648   0.914667 C.3        1 UNL1     0.1131
     39 C         2.274181   0.616546   1.183138 C.3        1 UNL1     0.0200
     40 C         2.536382   -0.464568   -0.059794 C.3        1 UNL1     0.0661
     41 C         1.365098   -1.02931   -1.149185 C.3        1 UNL1     0.0091
     42 C         1.51666   -1.521933   -2.909797 C.3        1 UNL1     0.0661
     43 C         3.372442   2.436662   -10.453999 C.2        1 UNL1     0.2131
     44 O         3.498671   3.137049   -11.442059 O.2        1 UNL1     -0.2851
     45 O         5.811827   3.820044   -10.430847 O.3        1 UNL1     -0.5056
     46 O         3.439069   1.143245   -5.001129 O.2        1 UNL1     -0.2836
     47 C         3.337802   -3.219189   -3.869264 C.3        1 UNL1     -0.0566
     48 O         0.755491   -2.783331   -2.740649 O.3        1 UNL1     -0.3909
     49 C         0.13533   -0.155705   -1.039741 C.3        1 UNL1     -0.0577
     50 O         3.729278   -0.153617   -0.751192 O.3        1 UNL1     -0.3910
     51 O         4.277832   2.453721   0.261589 O.3        1 UNL1     -0.3753
     52 C         1.110162   2.634384   -1.747715 C.3        1 UNL1     -0.0564
     53 O         0.059621   2.013883   1.289343 O.3        1 UNL1     -0.4608
     54 C         -0.659058   0.96101   1.792225 C.2        1 UNL1     0.3042
     55 O         -0.488391   0.38537   2.866166 O.2        1 UNL1     -0.2512
     56 C         -1.804975   0.541897   0.915909 C.3        1 UNL1     0.0332
     57 C         3.496144   0.933876   2.165117 C.3        1 UNL1     -0.0567
     58 C         4.095819   4.335839   -4.518327 C.3        1 UNL1     0.0210
     59 C         4.897476   3.280505   1.245629 C.3        1 UNL1     0.0372
     60 C         3.891641   2.889064   -1.991004 C.2        1 UNL1     -0.0208
     61 C         4.993603   2.272427   -2.42017 C.2        1 UNL1     0.0882
     62 H         3.079645   -1.148494   -4.348738 H        1 UNL1     0.0365
     63 H         3.351688   -1.135859   -6.37261 H        1 UNL1     0.0576
     64 H         1.645975   -3.308951   -7.738256 H        1 UNL1     0.0615
     65 H         3.503383   -1.054841   -8.845904 H        1 UNL1     0.0622
     66 H         3.50209   4.207163   -0.431836 H        1 UNL1     0.0645
     67 H         1.438624   3.823752   -0.123118 H        1 UNL1     0.0362
     68 H         1.868309   2.668942   1.692856 H        1 UNL1     0.0741
     69 H         1.701915   0.030801   1.89012 H        1 UNL1     0.0359
     70 H         2.783908   -1.371091   0.525019 H        1 UNL1     0.0600
     71 H         1.030973   -1.941968   -0.617798 H        1 UNL1     0.0348
     72 H         2.534578   -1.560328   -2.495448 H        1 UNL1     0.0602
     73 H         3.275848   3.414461   -2.67803 H        1 UNL1     0.0628
     74 H         5.645015   1.664928   -1.791008 H        1 UNL1     0.1022
     75 H         1.751095   -3.592746   -11.539652 H        1 UNL1     0.0279
     76 H         0.545313   -2.36828   -11.548164 H        1 UNL1     0.0279
     77 H         2.012751   -2.273058   -12.603085 H        1 UNL1     0.0279
     78 H         1.134475   0.210073   -11.360068 H        1 UNL1     0.1553
     79 H         0.196832   -0.211685   -9.666205 H        1 UNL1     0.1484
     80 H         -1.028645   1.611229   -6.56545 H        1 UNL1     0.0317
     81 H         -0.243749   2.43589   -7.904777 H        1 UNL1     0.0317
     82 H         -1.452742   1.002903   -9.571686 H        1 UNL1     0.0428
     83 H         -2.54031   1.864469   -8.505571 H        1 UNL1     0.0428
     84 H         -1.802539   -2.221435   -7.575934 H        1 UNL1     0.0428
     85 H         -1.020006   -1.601215   -8.987349 H        1 UNL1     0.0428
     86 H         0.349424   -1.746605   -6.906875 H        1 UNL1     0.0317
     87 H         -0.668882   -0.687948   -6.043943 H        1 UNL1     0.0317
     88 H         -3.420794   -1.316865   -9.450076 H        1 UNL1     0.0429
     89 H         -4.325004   -0.928965   -7.984411 H        1 UNL1     0.0429
     90 H         -3.490356   1.545223   -9.308477 H        1 UNL1     0.0308
     91 H         -4.558283   -0.623082   -11.135516 H        1 UNL1     0.0233
     92 H         -5.162946   1.03954   -11.34898 H        1 UNL1     0.0233
     93 H         -3.455102   0.693588   -11.516876 H        1 UNL1     0.0233
     94 H         -5.302142   1.923642   -8.060639 H        1 UNL1     0.0233
     95 H         -6.167992   1.513923   -9.549519 H        1 UNL1     0.0233
     96 H         -5.965394   0.29046   -8.274339 H        1 UNL1     0.0233
     97 H         6.912237   5.482109   -7.225758 H        1 UNL1     0.0280
     98 H         8.071575   4.232885   -7.589848 H        1 UNL1     0.0280
     99 H         7.316784   5.158183   -8.921706 H        1 UNL1     0.0280
     100 H         5.881766   3.149185   -11.087108 H        1 UNL1     0.2922
     101 H         2.774956   -4.151363   -3.912987 H        1 UNL1     0.0236
     102 H         3.722829   -3.020414   -2.86965 H        1 UNL1     0.0236
     103 H         4.234405   -3.404542   -4.484033 H        1 UNL1     0.0236
     104 H         0.399061   -2.792999   -1.830794 H        1 UNL1     0.2098
     105 H         0.233026   0.818526   -1.512118 H        1 UNL1     0.0234
     106 H         -0.792847   -0.634966   -1.350746 H        1 UNL1     0.0234
     107 H         -0.0   0.0   0.0 H        1 UNL1     0.0234
     108 H         3.719048   -0.656749   -1.588163 H        1 UNL1     0.2098
     109 H         1.167217   3.522006   -2.393148 H        1 UNL1     0.0234
     110 H         1.455929   1.755322   -2.302186 H        1 UNL1     0.0234
     111 H         0.039096   2.447445   -1.593389 H        1 UNL1     0.0234
     112 H         -1.873531   -0.549873   0.88974 H        1 UNL1     0.0342
     113 H         -2.747383   0.985031   1.234254 H        1 UNL1     0.0342
     114 H         -1.601229   0.891126   -0.105703 H        1 UNL1     0.0342
     115 H         3.696543   0.099028   2.850725 H        1 UNL1     0.0234
     116 H         4.430217   1.167496   1.650356 H        1 UNL1     0.0234
     117 H         3.287006   1.74976   2.878234 H        1 UNL1     0.0234
     118 H         4.217527   4.749398   -3.501881 H        1 UNL1     0.0309
     119 H         4.302143   5.121733   -5.251815 H        1 UNL1     0.0309
     120 H         3.020657   4.135819   -4.582544 H        1 UNL1     0.0309
     121 H         4.119981   3.615899   1.931464 H        1 UNL1     0.0524
     122 H         5.649538   2.733501   1.838273 H        1 UNL1     0.0524
     123 H         5.374189   4.134522   0.772879 H        1 UNL1     0.0524
@<TRIPOS>BOND
     1     1     2    1
     2     1    42    1
     3     2     3    2
     4     3     4    1
     5     4     5    2
     6     5     7    1
     7     6    75    1
     8     6    76    1
     9     6    77    1
    10     7     9   am
    11     9    10    1
    12    10    11    2
    13    10    43    1
    14    11    14    1
    15    11    15    1
    16    12    13   ar
    17    12    27   ar
    18    12    43    1
    19    13    14    1
    20    13    30   ar
    21    14    17    2
    22    15    16    1
    23    16    17    1
    24    16    18    1
    25    16    22    1
    26    18    19    1
    27    19    20    1
    28    20    21    1
    29    21    22    1
    30    23    24    1
    31    23    88    1
    32    23    89    1
    33    24    25    1
    34    24    26    1
    35    24    90    1
    36    25    91    1
    37    25    92    1
    38    25    93    1
    39    26    94    1
    40    26    95    1
    41    26    96    1
    42    27    28   ar
    43    28    29   ar
    44    29    30   ar
    45    29    31    1
    46    30    33    1
    47    31    32    1
    48    32    33    1
    49    32    35    1
    50    34    97    1
    51    34    98    1
    52    34    99    1
    53    35    61    1
    54    36    37    1
    55    36    60    1
    56    37    38    1
    57    38    39    1
    58    39    40    1
    59    40    41    1
    60    41    42    1
    61    45   100    1
    62    47   101    1
    63    47   102    1
    64    47   103    1
    65    48   104    1
    66    49   105    1
    67    49   106    1
    68    49   107    1
    69    50   108    1
    70    51    59    1
    71    52   109    1
    72    52   110    1
    73    52   111    1
    74    53    54    1
    75    54    55    2
    76    54    56    1
    77    56   112    1
    78    56   113    1
    79    56   114    1
    80    57   115    1
    81    57   116    1
    82    57   117    1
    83    58   118    1
    84    58   119    1
    85    58   120    1
    86    59   121    1
    87    59   122    1
    88    59   123    1
    89    60    61    2
    90     1    47    1
    91     1    62    1
    92     2    63    1
    93     3    64    1
    94     4    65    1
    95     5     6    1
    96     7     8    2
    97     9    78    1
    98    15    79    1
    99    18    80    1
   100    18    81    1
   101    19    82    1
   102    19    83    1
   103    20    23    1
   104    21    84    1
   105    21    85    1
   106    22    86    1
   107    22    87    1
   108    27    45    1
   109    28    34    1
   110    32    58    1
   111    33    46    2
   112    36    51    1
   113    36    66    1
   114    37    52    1
   115    37    67    1
   116    38    53    1
   117    38    68    1
   118    42    48    1
   119    42    72    1
   120    43    44    2
   121    60    73    1
   122    61    74    1
   123    39    69    1
   124    39    57    1
   125    40    70    1
   126    40    50    1
   127    41    71    1
   128    41    49    1
