@<TRIPOS>MOLECULE
*****
 123 128 0 0 0
SMALL
GASTEIGER

@<TRIPOS>ATOM
     1 C         5.165491   1.75321   0.493181 C.3        1 UNL1     0.0009
     2 C         6.601793   2.560566   -0.356673 C.2        1 UNL1     -0.0787
     3 C         7.883994   2.46349   -1.021942 C.2        1 UNL1     -0.0649
     4 C         8.760654   3.699379   -1.777191 C.2        1 UNL1     -0.0542
     5 C         9.780766   3.992916   -2.715427 C.2        1 UNL1     0.0115
     6 C         10.90981   3.368454   -3.580661 C.3        1 UNL1     -0.0348
     7 C         9.875051   5.476264   -3.321872 C.2        1 UNL1     0.2441
     8 O         10.698095   6.298611   -2.943888 O.2        1 UNL1     -0.2702
     9 N         9.125073   5.68261   -4.492814 N.am        1 UNL1     -0.2772
     10 C         7.841914   6.068185   -4.179513 C.2        1 UNL1     0.1049
     11 C         6.996856   5.096043   -3.8879 C.2        1 UNL1     0.0801
     12 C         6.54164   7.673699   -2.769213 C.ar        1 UNL1     0.0753
     13 C         5.783388   6.545125   -2.322015 C.ar        1 UNL1     0.0305
     14 C         5.90167   5.239537   -2.967382 C.2        1 UNL1     0.0924
     15 N         7.120672   3.767173   -4.046968 N.pl3        1 UNL1     -0.3170
     16 C         5.851214   3.16691   -3.733258 C.3        1 UNL1     0.1275
     17 N         5.213644   4.121582   -2.753548 N.2        1 UNL1     -0.2557
     18 C         4.998769   3.225272   -4.997233 C.3        1 UNL1     0.0016
     19 C         5.754641   2.541846   -6.125584 C.3        1 UNL1     0.0026
     20 N         6.025825   1.16397   -5.739652 N.3        1 UNL1     -0.3018
     21 C         6.788874   1.004208   -4.500055 C.3        1 UNL1     0.0026
     22 C         6.009136   1.694042   -3.379327 C.3        1 UNL1     0.0016
     23 C         6.471432   0.344832   -6.849198 C.3        1 UNL1     0.0012
     24 C         5.316553   0.094384   -7.831688 C.3        1 UNL1     -0.0339
     25 C         5.391791   1.040881   -9.041043 C.3        1 UNL1     -0.0615
     26 C         5.305266   -1.362234   -8.261708 C.3        1 UNL1     -0.0615
     27 C         6.3357   8.941208   -2.22965 C.ar        1 UNL1     0.1347
     28 C         5.376067   9.209919   -1.269988 C.ar        1 UNL1     0.0342
     29 C         4.675313   8.074861   -0.809824 C.ar        1 UNL1     0.1435
     30 C         4.896035   6.79303   -1.315207 C.ar        1 UNL1     0.0774
     31 O         3.63392   8.187523   0.043296 O.3        1 UNL1     -0.4436
     32 C         2.91335   6.954087   -0.099138 C.3        1 UNL1     0.3143
     33 C         3.927686   5.961857   -0.630941 C.2        1 UNL1     0.2504
     34 C         4.927902   10.575633   -0.829453 C.3        1 UNL1     -0.0327
     35 O         2.552621   6.517061   1.216968 O.2        1 UNL1     -0.4528
     36 C         -0.688629   4.582103   0.819065 C.3        1 UNL1     0.0854
     37 C         -0.992538   3.321268   -0.078408 C.3        1 UNL1     0.0236
     38 C         -1.592291   2.059701   0.709305 C.3        1 UNL1     0.1131
     39 C         -0.866536   1.529375   2.010959 C.3        1 UNL1     0.0200
     40 C         0.794765   1.385252   2.052709 C.3        1 UNL1     0.0661
     41 C         1.755203   0.617255   0.884227 C.3        1 UNL1     0.0091
     42 C         3.462677   0.981279   0.320825 C.3        1 UNL1     0.0661
     43 C         7.492252   7.46682   -3.889836 C.2        1 UNL1     0.2131
     44 O         7.891618   8.365245   -4.60822 O.2        1 UNL1     -0.2851
     45 O         7.147241   9.977014   -2.687847 O.3        1 UNL1     -0.5056
     46 O         3.94466   4.758336   -0.500166 O.2        1 UNL1     -0.2836
     47 C         5.561718   1.324064   1.93152 C.3        1 UNL1     -0.0566
     48 O         3.912419   -0.429442   0.40276 O.3        1 UNL1     -0.3909
     49 C         0.921648   0.383958   -0.356036 C.3        1 UNL1     -0.0577
     50 O         1.393785   2.603626   2.445729 O.3        1 UNL1     -0.3910
     51 O         -0.81304   4.392316   2.210443 O.3        1 UNL1     -0.3753
     52 C         0.052455   3.161694   -1.230569 C.3        1 UNL1     -0.0564
     53 O         -2.193692   1.020206   -0.190747 O.3        1 UNL1     -0.4608
     54 C         -2.427103   -0.286747   0.148847 C.2        1 UNL1     0.3042
     55 O         -1.856235   -1.285312   -0.287978 O.2        1 UNL1     -0.2512
     56 C         -3.468479   -0.453369   1.218654 C.3        1 UNL1     0.0332
     57 C         -1.588574   2.19775   3.271956 C.3        1 UNL1     -0.0567
     58 C         1.838322   7.198261   -1.183677 C.3        1 UNL1     0.0210
     59 C         -1.1275   5.571052   2.950417 C.3        1 UNL1     0.0372
     60 C         0.639909   5.212322   0.58891 C.2        1 UNL1     -0.0208
     61 C         1.552172   5.648333   1.458631 C.2        1 UNL1     0.0882
     62 H         4.688701   2.736976   0.580284 H        1 UNL1     0.0365
     63 H         6.33461   3.614137   -0.251461 H        1 UNL1     0.0576
     64 H         8.342549   1.497031   -1.242831 H        1 UNL1     0.0615
     65 H         8.272671   4.61436   -1.430542 H        1 UNL1     0.0622
     66 H         -1.433809   5.327995   0.508585 H        1 UNL1     0.0645
     67 H         -1.85814   3.629894   -0.689999 H        1 UNL1     0.0362
     68 H         -2.539854   2.49577   1.060716 H        1 UNL1     0.0741
     69 H         -1.197264   0.517996   2.206249 H        1 UNL1     0.0359
     70 H         0.906802   0.725019   2.933959 H        1 UNL1     0.0600
     71 H         1.79951   -0.403871   1.311187 H        1 UNL1     0.0348
     72 H         3.356043   1.469397   1.300461 H        1 UNL1     0.0602
     73 H         0.757991   5.409668   -0.447604 H        1 UNL1     0.0628
     74 H         1.53444   5.437658   2.528462 H        1 UNL1     0.1022
     75 H         10.93658   2.259808   -3.449437 H        1 UNL1     0.0279
     76 H         10.809894   3.47442   -4.658555 H        1 UNL1     0.0279
     77 H         11.915318   3.651826   -3.236634 H        1 UNL1     0.0279
     78 H         9.063992   4.812606   -5.017638 H        1 UNL1     0.1553
     79 H         7.786518   3.339746   -4.66413 H        1 UNL1     0.1484
     80 H         4.03784   2.73352   -4.803423 H        1 UNL1     0.0317
     81 H         4.77137   4.26183   -5.268319 H        1 UNL1     0.0317
     82 H         6.684935   3.073939   -6.373257 H        1 UNL1     0.0428
     83 H         5.129745   2.596452   -7.017534 H        1 UNL1     0.0428
     84 H         6.909978   -0.038639   -4.190838 H        1 UNL1     0.0428
     85 H         7.818688   1.373118   -4.603525 H        1 UNL1     0.0428
     86 H         6.525463   1.444124   -2.471067 H        1 UNL1     0.0317
     87 H         5.030056   1.215572   -3.254567 H        1 UNL1     0.0317
     88 H         7.267212   0.887303   -7.376221 H        1 UNL1     0.0429
     89 H         6.904713   -0.600569   -6.498117 H        1 UNL1     0.0429
     90 H         4.363546   0.261832   -7.315983 H        1 UNL1     0.0308
     91 H         6.347075   0.941432   -9.565108 H        1 UNL1     0.0233
     92 H         4.576603   0.839974   -9.740123 H        1 UNL1     0.0233
     93 H         5.295048   2.094746   -8.753217 H        1 UNL1     0.0233
     94 H         4.613585   -1.503443   -9.099248 H        1 UNL1     0.0233
     95 H         6.303149   -1.661311   -8.594492 H        1 UNL1     0.0233
     96 H         4.995013   -2.017597   -7.443044 H        1 UNL1     0.0233
     97 H         4.128064   10.525314   -0.096679 H        1 UNL1     0.0280
     98 H         5.737586   11.142889   -0.352075 H        1 UNL1     0.0280
     99 H         4.562845   11.143225   -1.701042 H        1 UNL1     0.0280
     100 H         6.679692   10.727746   -3.009438 H        1 UNL1     0.2922
     101 H         4.69595   0.901107   2.440646 H        1 UNL1     0.0236
     102 H         6.022714   2.126429   2.506564 H        1 UNL1     0.0236
     103 H         6.309483   0.513483   1.930659 H        1 UNL1     0.0236
     104 H         4.326384   -0.556642   1.278787 H        1 UNL1     0.2098
     105 H         0.708427   1.282601   -0.929438 H        1 UNL1     0.0234
     106 H         1.291931   -0.403756   -1.012026 H        1 UNL1     0.0234
     107 H         0.0   -0.0   0.0 H        1 UNL1     0.0234
     108 H         1.20994   3.257048   1.743584 H        1 UNL1     0.2098
     109 H         1.078696   3.061492   -0.850437 H        1 UNL1     0.0234
     110 H         -0.172382   2.32678   -1.90296 H        1 UNL1     0.0234
     111 H         0.064332   4.039281   -1.890605 H        1 UNL1     0.0234
     112 H         -3.591004   -1.514338   1.456726 H        1 UNL1     0.0342
     113 H         -3.233506   0.122961   2.112227 H        1 UNL1     0.0342
     114 H         -4.425754   -0.083548   0.826199 H        1 UNL1     0.0342
     115 H         -2.657998   1.94856   3.309703 H        1 UNL1     0.0234
     116 H         -1.152201   1.918376   4.232986 H        1 UNL1     0.0234
     117 H         -1.628098   3.299572   3.223299 H        1 UNL1     0.0234
     118 H         0.936071   7.682992   -0.771384 H        1 UNL1     0.0309
     119 H         2.207045   7.787847   -2.029038 H        1 UNL1     0.0309
     120 H         1.451798   6.266001   -1.609818 H        1 UNL1     0.0309
     121 H         -0.290017   6.260075   2.844463 H        1 UNL1     0.0524
     122 H         -2.026704   6.079704   2.564744 H        1 UNL1     0.0524
     123 H         -1.282168   5.327308   3.997681 H        1 UNL1     0.0524
@<TRIPOS>BOND
     1     1     2    1
     2     1    42    1
     3     2     3    2
     4     3     4    1
     5     4     5    2
     6     5     7    1
     7     6    75    1
     8     6    76    1
     9     6    77    1
    10     7     9   am
    11     9    10    1
    12    10    11    2
    13    10    43    1
    14    11    14    1
    15    11    15    1
    16    12    13   ar
    17    12    27   ar
    18    12    43    1
    19    13    14    1
    20    13    30   ar
    21    14    17    2
    22    15    16    1
    23    16    17    1
    24    16    18    1
    25    16    22    1
    26    18    19    1
    27    19    20    1
    28    20    21    1
    29    21    22    1
    30    23    24    1
    31    23    88    1
    32    23    89    1
    33    24    25    1
    34    24    26    1
    35    24    90    1
    36    25    91    1
    37    25    92    1
    38    25    93    1
    39    26    94    1
    40    26    95    1
    41    26    96    1
    42    27    28   ar
    43    28    29   ar
    44    29    30   ar
    45    29    31    1
    46    30    33    1
    47    31    32    1
    48    32    33    1
    49    32    35    1
    50    34    97    1
    51    34    98    1
    52    34    99    1
    53    35    61    1
    54    36    37    1
    55    36    60    1
    56    37    38    1
    57    38    39    1
    58    39    40    1
    59    40    41    1
    60    41    42    1
    61    45   100    1
    62    47   101    1
    63    47   102    1
    64    47   103    1
    65    48   104    1
    66    49   105    1
    67    49   106    1
    68    49   107    1
    69    50   108    1
    70    51    59    1
    71    52   109    1
    72    52   110    1
    73    52   111    1
    74    53    54    1
    75    54    55    2
    76    54    56    1
    77    56   112    1
    78    56   113    1
    79    56   114    1
    80    57   115    1
    81    57   116    1
    82    57   117    1
    83    58   118    1
    84    58   119    1
    85    58   120    1
    86    59   121    1
    87    59   122    1
    88    59   123    1
    89    60    61    2
    90     1    47    1
    91     1    62    1
    92     2    63    1
    93     3    64    1
    94     4    65    1
    95     5     6    1
    96     7     8    2
    97     9    78    1
    98    15    79    1
    99    18    80    1
   100    18    81    1
   101    19    82    1
   102    19    83    1
   103    20    23    1
   104    21    84    1
   105    21    85    1
   106    22    86    1
   107    22    87    1
   108    27    45    1
   109    28    34    1
   110    32    58    1
   111    33    46    2
   112    36    51    1
   113    36    66    1
   114    37    52    1
   115    37    67    1
   116    38    53    1
   117    38    68    1
   118    42    48    1
   119    42    72    1
   120    43    44    2
   121    60    73    1
   122    61    74    1
   123    39    69    1
   124    39    57    1
   125    40    70    1
   126    40    50    1
   127    41    71    1
   128    41    49    1
