@<TRIPOS>MOLECULE
*****
 123 128 0 0 0
SMALL
GASTEIGER

@<TRIPOS>ATOM
     1 C         3.529212   -3.481505   0.463973 C.3        1 UNL1     0.0009
     2 C         5.314826   -3.63413   -0.010713 C.2        1 UNL1     -0.0787
     3 C         6.359636   -4.277312   -0.779306 C.2        1 UNL1     -0.0649
     4 C         7.992405   -3.84206   -0.884089 C.2        1 UNL1     -0.0542
     5 C         9.178634   -3.960102   -1.649599 C.2        1 UNL1     0.0115
     6 C         9.835252   -4.708158   -2.842322 C.3        1 UNL1     -0.0348
     7 C         10.368407   -2.910411   -1.405516 C.2        1 UNL1     0.2441
     8 O         11.371254   -3.179833   -0.758806 O.2        1 UNL1     -0.2702
     9 N         10.303791   -1.751907   -2.199144 N.am        1 UNL1     -0.2772
     10 C         9.544273   -0.786659   -1.57886 C.2        1 UNL1     0.1049
     11 C         8.236496   -0.886499   -1.73369 C.2        1 UNL1     0.0801
     12 C         9.23442   0.394063   0.604536 C.ar        1 UNL1     0.0753
     13 C         7.843685   0.075775   0.489836 C.ar        1 UNL1     0.0305
     14 C         7.280916   -0.460111   -0.747568 C.2        1 UNL1     0.0924
     15 N         7.522223   -1.656784   -2.572142 N.pl3        1 UNL1     -0.3170
     16 C         6.14284   -1.261944   -2.464174 C.3        1 UNL1     0.1275
     17 N         6.01451   -0.716552   -1.062817 N.2        1 UNL1     -0.2557
     18 C         5.937542   -0.075291   -3.400876 C.3        1 UNL1     0.0016
     19 C         6.366424   -0.481641   -4.801779 C.3        1 UNL1     0.0026
     20 N         5.568405   -1.625122   -5.222073 N.3        1 UNL1     -0.3018
     21 C         5.652243   -2.796835   -4.347757 C.3        1 UNL1     0.0026
     22 C         5.212634   -2.366955   -2.9471 C.3        1 UNL1     0.0016
     23 C         5.683907   -1.902853   -6.639877 C.3        1 UNL1     0.0012
     24 C         4.310564   -2.253797   -7.233614 C.3        1 UNL1     -0.0339
     25 C         3.361818   -2.816158   -6.162312 C.3        1 UNL1     -0.0615
     26 C         3.716102   -1.038936   -7.924632 C.3        1 UNL1     -0.0615
     27 C         9.740942   1.016097   1.743232 C.ar        1 UNL1     0.1347
     28 C         8.950683   1.402625   2.811004 C.ar        1 UNL1     0.0342
     29 C         7.593065   1.035154   2.696966 C.ar        1 UNL1     0.1435
     30 C         7.07806   0.379492   1.577995 C.ar        1 UNL1     0.0774
     31 O         6.675647   1.436983   3.603544 O.3        1 UNL1     -0.4436
     32 C         5.415283   1.296548   2.930764 C.3        1 UNL1     0.3143
     33 C         5.658856   0.269481   1.843558 C.2        1 UNL1     0.2504
     34 C         9.375785   2.292019   3.946066 C.3        1 UNL1     -0.0327
     35 O         4.498465   0.708829   3.862045 O.2        1 UNL1     -0.4528
     36 C         1.066222   2.023905   2.914219 C.3        1 UNL1     0.0854
     37 C         0.303803   1.917644   1.537647 C.3        1 UNL1     0.0236
     38 C         -1.157254   1.26209   1.623114 C.3        1 UNL1     0.1131
     39 C         -1.354584   -0.122393   2.362395 C.3        1 UNL1     0.0200
     40 C         -0.273833   -1.370062   2.122112 C.3        1 UNL1     0.0661
     41 C         0.258544   -1.947824   0.618657 C.3        1 UNL1     0.0091
     42 C         1.871654   -2.667874   0.123877 C.3        1 UNL1     0.0661
     43 C         10.104263   0.120871   -0.566361 C.2        1 UNL1     0.2131
     44 O         11.170473   0.677234   -0.757133 O.2        1 UNL1     -0.2851
     45 O         11.113626   1.249741   1.794088 O.3        1 UNL1     -0.5056
     46 O         4.864633   -0.485272   1.328376 O.2        1 UNL1     -0.2836
     47 C         3.121956   -4.642002   1.411269 C.3        1 UNL1     -0.0566
     48 O         1.267894   -3.817459   -0.592393 O.3        1 UNL1     -0.3909
     49 C         -0.126378   -0.950712   -0.451436 C.3        1 UNL1     -0.0577
     50 O         0.81778   -1.266261   3.013925 O.3        1 UNL1     -0.3910
     51 O         0.454064   1.380017   4.008797 O.3        1 UNL1     -0.3753
     52 C         1.280283   1.620291   0.353157 C.3        1 UNL1     -0.0564
     53 O         -1.989762   1.488284   0.395069 O.3        1 UNL1     -0.4608
     54 C         -3.358127   1.555387   0.36336 C.2        1 UNL1     0.3042
     55 O         -4.053604   2.561093   0.226591 O.2        1 UNL1     -0.2512
     56 C         -4.028303   0.214044   0.454884 C.3        1 UNL1     0.0332
     57 C         -1.807293   0.192753   3.863699 C.3        1 UNL1     -0.0567
     58 C         5.118017   2.662381   2.269204 C.3        1 UNL1     0.0210
     59 C         -0.739779   0.665382   3.692724 C.3        1 UNL1     0.0372
     60 C         2.482715   1.56797   2.885369 C.2        1 UNL1     -0.0208
     61 C         3.160338   0.797426   3.737327 C.2        1 UNL1     0.0882
     62 H         3.792176   -2.631651   1.105308 H        1 UNL1     0.0365
     63 H         5.766623   -2.897384   0.656785 H        1 UNL1     0.0576
     64 H         6.133395   -5.044939   -1.522724 H        1 UNL1     0.0615
     65 H         8.12843   -3.139601   -0.05733 H        1 UNL1     0.0622
     66 H         1.100809   3.101445   3.128128 H        1 UNL1     0.0645
     67 H         0.060332   2.964174   1.284553 H        1 UNL1     0.0362
     68 H         -1.656197   2.007319   2.261246 H        1 UNL1     0.0741
     69 H         -2.292747   -0.556618   2.043478 H        1 UNL1     0.0359
     70 H         -0.870289   -2.216816   2.512377 H        1 UNL1     0.0600
     71 H         -0.485339   -2.750069   0.445455 H        1 UNL1     0.0348
     72 H         1.82409   -2.754415   1.219123 H        1 UNL1     0.0602
     73 H         2.992597   2.061932   2.095895 H        1 UNL1     0.0628
     74 H         2.703883   0.211706   4.535962 H        1 UNL1     0.1022
     75 H         10.928361   -4.48506   -2.891057 H        1 UNL1     0.0279
     76 H         9.81958   -5.794957   -2.801201 H        1 UNL1     0.0279
     77 H         9.493913   -4.334157   -3.818699 H        1 UNL1     0.0279
     78 H         9.856399   -1.970057   -3.087023 H        1 UNL1     0.1553
     79 H         7.902587   -2.083819   -3.396701 H        1 UNL1     0.1484
     80 H         4.882158   0.221838   -3.375481 H        1 UNL1     0.0317
     81 H         6.515634   0.792483   -3.065573 H        1 UNL1     0.0317
     82 H         7.441291   -0.710599   -4.848157 H        1 UNL1     0.0428
     83 H         6.213468   0.379501   -5.453001 H        1 UNL1     0.0428
     84 H         4.9833   -3.611837   -4.641184 H        1 UNL1     0.0428
     85 H         6.652197   -3.251775   -4.368679 H        1 UNL1     0.0428
     86 H         5.158725   -3.271523   -2.370179 H        1 UNL1     0.0317
     87 H         4.172748   -2.018879   -2.971081 H        1 UNL1     0.0317
     88 H         6.058109   -0.997705   -7.135834 H        1 UNL1     0.0429
     89 H         6.413723   -2.699884   -6.831928 H        1 UNL1     0.0429
     90 H         4.440472   -3.010135   -8.016743 H        1 UNL1     0.0308
     91 H         2.415905   -2.266715   -6.140767 H        1 UNL1     0.0233
     92 H         3.158019   -3.874066   -6.343712 H        1 UNL1     0.0233
     93 H         3.788029   -2.755436   -5.153603 H        1 UNL1     0.0233
     94 H         4.388775   -0.180324   -7.823966 H        1 UNL1     0.0233
     95 H         3.586148   -1.242136   -8.991302 H        1 UNL1     0.0233
     96 H         2.74658   -0.770512   -7.495746 H        1 UNL1     0.0233
     97 H         10.067488   1.792667   4.617947 H        1 UNL1     0.0280
     98 H         9.896027   3.192336   3.593879 H        1 UNL1     0.0280
     99 H         8.490196   2.598058   4.526726 H        1 UNL1     0.0280
     100 H         11.372048   1.938648   2.380814 H        1 UNL1     0.2922
     101 H         3.832599   -4.711154   2.234592 H        1 UNL1     0.0236
     102 H         2.999936   -5.59377   0.895293 H        1 UNL1     0.0236
     103 H         2.148686   -4.458505   1.896313 H        1 UNL1     0.0236
     104 H         1.79068   -3.966541   -1.404452 H        1 UNL1     0.2098
     105 H         0.498334   -0.982529   -1.340555 H        1 UNL1     0.0234
     106 H         -1.180152   -0.965131   -0.729427 H        1 UNL1     0.0234
     107 H         0.0   0.0   0.0 H        1 UNL1     0.0234
     108 H         0.761015   -2.021065   3.631029 H        1 UNL1     0.2098
     109 H         2.32951   1.584336   0.67803 H        1 UNL1     0.0234
     110 H         1.032663   0.700942   -0.188346 H        1 UNL1     0.0234
     111 H         1.23388   2.402884   -0.41583 H        1 UNL1     0.0234
     112 H         -5.111906   0.332098   0.358895 H        1 UNL1     0.0342
     113 H         -3.644581   -0.486823   -0.284973 H        1 UNL1     0.0342
     114 H         -3.822003   -0.205437   1.449188 H        1 UNL1     0.0342
     115 H         -2.90116   0.219564   3.963318 H        1 UNL1     0.0234
     116 H         -1.427818   -0.518186   4.600322 H        1 UNL1     0.0234
     117 H         -1.537689   1.208563   4.200429 H        1 UNL1     0.0234
     118 H         5.976093   3.353419   2.341168 H        1 UNL1     0.0309
     119 H         4.815335   2.575178   1.220881 H        1 UNL1     0.0309
     120 H         4.312142   3.207046   2.773201 H        1 UNL1     0.0309
     121 H         -1.047934   0.125969   4.587951 H        1 UNL1     0.0524
     122 H         -1.566822   1.337269   3.408814 H        1 UNL1     0.0524
     123 H         -0.556627   -0.031405   2.879683 H        1 UNL1     0.0524
@<TRIPOS>BOND
     1     1     2    1
     2     1    42    1
     3     2     3    2
     4     3     4    1
     5     4     5    2
     6     5     7    1
     7     6    75    1
     8     6    76    1
     9     6    77    1
    10     7     9   am
    11     9    10    1
    12    10    11    2
    13    10    43    1
    14    11    14    1
    15    11    15    1
    16    12    13   ar
    17    12    27   ar
    18    12    43    1
    19    13    14    1
    20    13    30   ar
    21    14    17    2
    22    15    16    1
    23    16    17    1
    24    16    18    1
    25    16    22    1
    26    18    19    1
    27    19    20    1
    28    20    21    1
    29    21    22    1
    30    23    24    1
    31    23    88    1
    32    23    89    1
    33    24    25    1
    34    24    26    1
    35    24    90    1
    36    25    91    1
    37    25    92    1
    38    25    93    1
    39    26    94    1
    40    26    95    1
    41    26    96    1
    42    27    28   ar
    43    28    29   ar
    44    29    30   ar
    45    29    31    1
    46    30    33    1
    47    31    32    1
    48    32    33    1
    49    32    35    1
    50    34    97    1
    51    34    98    1
    52    34    99    1
    53    35    61    1
    54    36    37    1
    55    36    60    1
    56    37    38    1
    57    38    39    1
    58    39    40    1
    59    40    41    1
    60    41    42    1
    61    45   100    1
    62    47   101    1
    63    47   102    1
    64    47   103    1
    65    48   104    1
    66    49   105    1
    67    49   106    1
    68    49   107    1
    69    50   108    1
    70    51    59    1
    71    52   109    1
    72    52   110    1
    73    52   111    1
    74    53    54    1
    75    54    55    2
    76    54    56    1
    77    56   112    1
    78    56   113    1
    79    56   114    1
    80    57   115    1
    81    57   116    1
    82    57   117    1
    83    58   118    1
    84    58   119    1
    85    58   120    1
    86    59   121    1
    87    59   122    1
    88    59   123    1
    89    60    61    2
    90     1    47    1
    91     1    62    1
    92     2    63    1
    93     3    64    1
    94     4    65    1
    95     5     6    1
    96     7     8    2
    97     9    78    1
    98    15    79    1
    99    18    80    1
   100    18    81    1
   101    19    82    1
   102    19    83    1
   103    20    23    1
   104    21    84    1
   105    21    85    1
   106    22    86    1
   107    22    87    1
   108    27    45    1
   109    28    34    1
   110    32    58    1
   111    33    46    2
   112    36    51    1
   113    36    66    1
   114    37    52    1
   115    37    67    1
   116    38    53    1
   117    38    68    1
   118    42    48    1
   119    42    72    1
   120    43    44    2
   121    60    73    1
   122    61    74    1
   123    39    69    1
   124    39    57    1
   125    40    70    1
   126    40    50    1
   127    41    71    1
   128    41    49    1
