@<TRIPOS>MOLECULE
*****
 123 128 0 0 0
SMALL
GASTEIGER

@<TRIPOS>ATOM
     1 C         -4.308892   -1.156096   1.972213 C.3        1 UNL1     0.0009
     2 C         -6.100705   -1.254234   1.506582 C.2        1 UNL1     -0.0787
     3 C         -7.377631   -0.609471   1.28345 C.2        1 UNL1     -0.0649
     4 C         -8.801088   -1.300432   0.681204 C.2        1 UNL1     -0.0542
     5 C         -10.051832   -1.036307   0.070502 C.2        1 UNL1     0.0115
     6 C         -11.045956   0.091489   -0.320799 C.3        1 UNL1     -0.0348
     7 C         -10.827308   -2.235781   -0.662224 C.2        1 UNL1     0.2441
     8 O         -11.777127   -2.819747   -0.15888 O.2        1 UNL1     -0.2702
     9 N         -10.512125   -2.396716   -2.022705 N.am        1 UNL1     -0.2772
     10 C         -9.425217   -3.227749   -2.168777 C.2        1 UNL1     0.1049
     11 C         -8.238917   -2.664642   -2.027973 C.2        1 UNL1     0.0801
     12 C         -8.505591   -5.437213   -1.440841 C.ar        1 UNL1     0.0753
     13 C         -7.302293   -4.737894   -1.106725 C.ar        1 UNL1     0.0305
     14 C         -7.085372   -3.35112   -1.512749 C.2        1 UNL1     0.0924
     15 N         -7.900961   -1.365022   -1.970517 N.pl3        1 UNL1     -0.3170
     16 C         -6.464524   -1.283431   -1.986143 C.3        1 UNL1     0.1275
     17 N         -6.005425   -2.586484   -1.378686 N.2        1 UNL1     -0.2557
     18 C         -6.025463   -1.319211   -3.446844 C.3        1 UNL1     0.0016
     19 C         -6.726271   -0.195059   -4.192995 C.3        1 UNL1     0.0026
     20 N         -6.371076   1.07252   -3.570012 N.3        1 UNL1     -0.3018
     21 C         -6.698511   1.179074   -2.146705 C.3        1 UNL1     0.0026
     22 C         -5.980454   0.043221   -1.415865 C.3        1 UNL1     0.0016
     23 C         -6.738821   2.219611   -4.375982 C.3        1 UNL1     0.0012
     24 C         -8.204171   2.113604   -4.826834 C.3        1 UNL1     -0.0339
     25 C         -8.972621   1.069181   -4.000564 C.3        1 UNL1     -0.0615
     26 C         -8.869138   3.47754   -4.761427 C.3        1 UNL1     -0.0615
     27 C         -8.65535   -6.792533   -1.156588 C.ar        1 UNL1     0.1347
     28 C         -7.660069   -7.560527   -0.578962 C.ar        1 UNL1     0.0342
     29 C         -6.502911   -6.840042   -0.2142 C.ar        1 UNL1     0.1435
     30 C         -6.352921   -5.474621   -0.459854 C.ar        1 UNL1     0.0774
     31 O         -5.402657   -7.465853   0.257826 O.3        1 UNL1     -0.4436
     32 C         -4.337155   -6.524228   0.060546 C.3        1 UNL1     0.3143
     33 C         -5.012747   -5.16939   -0.004295 C.2        1 UNL1     0.2504
     34 C         -7.652181   -9.060253   -0.474761 C.3        1 UNL1     -0.0327
     35 O         -3.534836   -6.533941   1.247745 O.2        1 UNL1     -0.4528
     36 C         -0.009204   -5.682843   0.128088 C.3        1 UNL1     0.0854
     37 C         0.509671   -4.41324   -0.650629 C.3        1 UNL1     0.0236
     38 C         1.701634   -3.618661   0.070213 C.3        1 UNL1     0.1131
     39 C         1.558666   -3.196496   1.587976 C.3        1 UNL1     0.0200
     40 C         0.129221   -2.549267   2.153855 C.3        1 UNL1     0.0661
     41 C         -0.734018   -1.273569   1.443204 C.3        1 UNL1     0.0091
     42 C         -2.537571   -0.942688   1.387373 C.3        1 UNL1     0.0661
     43 C         -9.554337   -4.692513   -2.180985 C.2        1 UNL1     0.2131
     44 O         -10.41629   -5.231403   -2.851337 O.2        1 UNL1     -0.2851
     45 O         -9.875138   -7.387071   -1.472941 O.3        1 UNL1     -0.5056
     46 O         -4.554794   -4.084736   0.277943 O.2        1 UNL1     -0.2836
     47 C         -4.159944   -0.962097   3.505236 C.3        1 UNL1     -0.0566
     48 O         -2.40416   0.480449   1.782343 O.3        1 UNL1     -0.3909
     49 C         -0.19918   -1.040026   0.04789 C.3        1 UNL1     -0.0577
     50 O         -0.761032   -3.572209   2.552306 O.3        1 UNL1     -0.3910
     51 O         0.508283   -5.86293   1.427014 O.3        1 UNL1     -0.3753
     52 C         -0.648836   -3.675209   -1.397703 C.3        1 UNL1     -0.0564
     53 O         2.405918   -2.646241   -0.830182 O.3        1 UNL1     -0.4608
     54 C         3.66729   -2.148804   -0.631616 C.2        1 UNL1     0.3042
     55 O         4.647307   -2.28437   -1.363072 O.2        1 UNL1     -0.2512
     56 C         3.793518   -1.305934   0.605457 C.3        1 UNL1     0.0332
     57 C         2.266642   -4.326209   2.471545 C.3        1 UNL1     -0.0567
     58 C         -3.722978   -6.842134   -1.322657 C.3        1 UNL1     0.0210
     59 C         0.486906   -7.209123   1.899425 C.3        1 UNL1     0.0372
     60 C         -1.489524   -5.792364   0.236791 C.2        1 UNL1     -0.0208
     61 C         -2.258955   -6.103794   1.280694 C.2        1 UNL1     0.0882
     62 H         -4.22051   -2.232705   1.782969 H        1 UNL1     0.0365
     63 H         -6.221862   -2.333173   1.389616 H        1 UNL1     0.0576
     64 H         -7.488298   0.475798   1.338683 H        1 UNL1     0.0615
     65 H         -8.614719   -2.376085   0.742196 H        1 UNL1     0.0622
     66 H         0.311533   -6.534683   -0.487982 H        1 UNL1     0.0645
     67 H         1.026302   -4.831812   -1.531793 H        1 UNL1     0.0362
     68 H         2.477742   -4.399036   0.056288 H        1 UNL1     0.0741
     69 H         2.274053   -2.413178   1.800211 H        1 UNL1     0.0359
     70 H         0.483699   -2.105541   3.103862 H        1 UNL1     0.0600
     71 H         -0.296004   -0.415572   1.989959 H        1 UNL1     0.0348
     72 H         -2.384256   -1.648386   2.21671 H        1 UNL1     0.0602
     73 H         -1.918382   -5.701765   -0.730225 H        1 UNL1     0.0628
     74 H         -1.907307   -6.158027   2.311539 H        1 UNL1     0.1022
     75 H         -12.067114   -0.327474   -0.490333 H        1 UNL1     0.0279
     76 H         -11.228848   0.858478   0.428432 H        1 UNL1     0.0279
     77 H         -10.825455   0.53016   -1.304998 H        1 UNL1     0.0279
     78 H         -10.26479   -1.495226   -2.425469 H        1 UNL1     0.1553
     79 H         -8.491353   -0.621147   -2.294587 H        1 UNL1     0.1484
     80 H         -4.934968   -1.213104   -3.495089 H        1 UNL1     0.0317
     81 H         -6.26701   -2.284538   -3.904502 H        1 UNL1     0.0317
     82 H         -7.817059   -0.335777   -4.210088 H        1 UNL1     0.0428
     83 H         -6.400387   -0.240039   -5.232623 H        1 UNL1     0.0428
     84 H         -6.349956   2.108022   -1.684778 H        1 UNL1     0.0428
     85 H         -7.783992   1.187383   -1.976474 H        1 UNL1     0.0428
     86 H         -6.133201   0.230231   -0.369115 H        1 UNL1     0.0317
     87 H         -4.895206   0.147035   -1.536504 H        1 UNL1     0.0317
     88 H         -6.627406   3.120605   -3.758656 H        1 UNL1     0.0429
     89 H         -6.067078   2.334221   -5.236447 H        1 UNL1     0.0429
     90 H         -8.234793   1.815725   -5.881606 H        1 UNL1     0.0308
     91 H         -10.028701   1.03596   -4.28463 H        1 UNL1     0.0233
     92 H         -8.535108   0.076447   -4.129677 H        1 UNL1     0.0233
     93 H         -8.939019   1.280619   -2.924924 H        1 UNL1     0.0233
     94 H         -9.679886   3.46754   -4.024933 H        1 UNL1     0.0233
     95 H         -8.141851   4.233338   -4.451936 H        1 UNL1     0.0233
     96 H         -9.286236   3.765023   -5.730628 H        1 UNL1     0.0233
     97 H         -8.276843   -9.41541   0.339421 H        1 UNL1     0.0280
     98 H         -8.040229   -9.540211   -1.382678 H        1 UNL1     0.0280
     99 H         -6.622525   -9.412591   -0.29937 H        1 UNL1     0.0280
     100 H         -10.05125   -7.45266   -2.395061 H        1 UNL1     0.2922
     101 H         -4.845162   -1.62869   4.028481 H        1 UNL1     0.0236
     102 H         -4.277742   0.074383   3.819586 H        1 UNL1     0.0236
     103 H         -3.158377   -1.252471   3.86404 H        1 UNL1     0.0236
     104 H         -2.609145   0.542391   2.735818 H        1 UNL1     0.2098
     105 H         0.726103   -1.566478   -0.172363 H        1 UNL1     0.0234
     106 H         -0.923961   -1.199869   -0.750276 H        1 UNL1     0.0234
     107 H         0.0   0.0   -0.0 H        1 UNL1     0.0234
     108 H         -1.333285   -3.20247   3.252013 H        1 UNL1     0.2098
     109 H         -1.559508   -3.604827   -0.78661 H        1 UNL1     0.0234
     110 H         -0.366482   -2.677532   -1.750778 H        1 UNL1     0.0234
     111 H         -0.944602   -4.207227   -2.31172 H        1 UNL1     0.0234
     112 H         4.713967   -1.562823   1.138493 H        1 UNL1     0.0342
     113 H         3.756239   -0.241005   0.381003 H        1 UNL1     0.0342
     114 H         2.946302   -1.536786   1.265833 H        1 UNL1     0.0342
     115 H         2.586866   -5.181492   1.860697 H        1 UNL1     0.0234
     116 H         3.138556   -3.974284   3.02649 H        1 UNL1     0.0234
     117 H         1.584138   -4.818118   3.185796 H        1 UNL1     0.0234
     118 H         -2.861256   -7.5281   -1.245904 H        1 UNL1     0.0309
     119 H         -4.448519   -7.256261   -2.02997 H        1 UNL1     0.0309
     120 H         -3.298284   -5.956385   -1.807622 H        1 UNL1     0.0309
     121 H         -0.523087   -7.419434   2.250194 H        1 UNL1     0.0524
     122 H         0.719826   -7.935657   1.103226 H        1 UNL1     0.0524
     123 H         1.198955   -7.334259   2.710241 H        1 UNL1     0.0524
@<TRIPOS>BOND
     1     1     2    1
     2     1    42    1
     3     2     3    2
     4     3     4    1
     5     4     5    2
     6     5     7    1
     7     6    75    1
     8     6    76    1
     9     6    77    1
    10     7     9   am
    11     9    10    1
    12    10    11    2
    13    10    43    1
    14    11    14    1
    15    11    15    1
    16    12    13   ar
    17    12    27   ar
    18    12    43    1
    19    13    14    1
    20    13    30   ar
    21    14    17    2
    22    15    16    1
    23    16    17    1
    24    16    18    1
    25    16    22    1
    26    18    19    1
    27    19    20    1
    28    20    21    1
    29    21    22    1
    30    23    24    1
    31    23    88    1
    32    23    89    1
    33    24    25    1
    34    24    26    1
    35    24    90    1
    36    25    91    1
    37    25    92    1
    38    25    93    1
    39    26    94    1
    40    26    95    1
    41    26    96    1
    42    27    28   ar
    43    28    29   ar
    44    29    30   ar
    45    29    31    1
    46    30    33    1
    47    31    32    1
    48    32    33    1
    49    32    35    1
    50    34    97    1
    51    34    98    1
    52    34    99    1
    53    35    61    1
    54    36    37    1
    55    36    60    1
    56    37    38    1
    57    38    39    1
    58    39    40    1
    59    40    41    1
    60    41    42    1
    61    45   100    1
    62    47   101    1
    63    47   102    1
    64    47   103    1
    65    48   104    1
    66    49   105    1
    67    49   106    1
    68    49   107    1
    69    50   108    1
    70    51    59    1
    71    52   109    1
    72    52   110    1
    73    52   111    1
    74    53    54    1
    75    54    55    2
    76    54    56    1
    77    56   112    1
    78    56   113    1
    79    56   114    1
    80    57   115    1
    81    57   116    1
    82    57   117    1
    83    58   118    1
    84    58   119    1
    85    58   120    1
    86    59   121    1
    87    59   122    1
    88    59   123    1
    89    60    61    2
    90     1    47    1
    91     1    62    1
    92     2    63    1
    93     3    64    1
    94     4    65    1
    95     5     6    1
    96     7     8    2
    97     9    78    1
    98    15    79    1
    99    18    80    1
   100    18    81    1
   101    19    82    1
   102    19    83    1
   103    20    23    1
   104    21    84    1
   105    21    85    1
   106    22    86    1
   107    22    87    1
   108    27    45    1
   109    28    34    1
   110    32    58    1
   111    33    46    2
   112    36    51    1
   113    36    66    1
   114    37    52    1
   115    37    67    1
   116    38    53    1
   117    38    68    1
   118    42    48    1
   119    42    72    1
   120    43    44    2
   121    60    73    1
   122    61    74    1
   123    39    69    1
   124    39    57    1
   125    40    70    1
   126    40    50    1
   127    41    71    1
   128    41    49    1
