@<TRIPOS>MOLECULE
*****
 123 128 0 0 0
SMALL
GASTEIGER

@<TRIPOS>ATOM
     1 C         3.055092   3.632197   2.73593 C.3        1 UNL1     0.0009
     2 C         4.063629   5.183619   2.621993 C.2        1 UNL1     -0.0787
     3 C         5.35091   5.843072   2.55815 C.2        1 UNL1     -0.0649
     4 C         5.666116   7.488943   2.317087 C.2        1 UNL1     -0.0542
     5 C         6.638704   8.438487   1.917692 C.2        1 UNL1     0.0115
     6 C         8.142452   8.63027   1.578158 C.3        1 UNL1     -0.0348
     7 C         6.15899   9.910633   1.493841 C.2        1 UNL1     0.2441
     8 O         6.260583   10.881592   2.231028 O.2        1 UNL1     -0.2702
     9 N         5.856605   10.061477   0.129304 N.am        1 UNL1     -0.2772
     10 C         4.539851   9.741045   -0.109029 C.2        1 UNL1     0.1049
     11 C         4.271287   8.456643   -0.258714 C.2        1 UNL1     0.0801
     12 C         2.214637   10.17167   0.706616 C.ar        1 UNL1     0.0753
     13 C         2.042127   8.750933   0.72545 C.ar        1 UNL1     0.0305
     14 C         3.021736   7.853092   0.11775 C.2        1 UNL1     0.0924
     15 N         5.102874   7.414007   -0.425752 N.pl3        1 UNL1     -0.3170
     16 C         4.301299   6.254433   -0.714055 C.3        1 UNL1     0.1275
     17 N         2.978112   6.53368   -0.044039 N.2        1 UNL1     -0.2557
     18 C         4.025138   6.257336   -2.214531 C.3        1 UNL1     0.0016
     19 C         5.353187   6.301978   -2.95337 C.3        1 UNL1     0.0026
     20 N         6.142121   5.140019   -2.56806 N.3        1 UNL1     -0.3018
     21 C         6.407794   5.016934   -1.133266 C.3        1 UNL1     0.0026
     22 C         5.060189   4.969197   -0.411064 C.3        1 UNL1     0.0016
     23 C         7.288183   4.925827   -3.429052 C.3        1 UNL1     0.0012
     24 C         7.843947   3.505228   -3.242553 C.3        1 UNL1     -0.0339
     25 C         9.372693   3.473769   -3.403813 C.3        1 UNL1     -0.0615
     26 C         7.412285   2.949687   -1.896514 C.3        1 UNL1     -0.0615
     27 C         1.221021   11.025694   1.179363 C.ar        1 UNL1     0.1347
     28 C         0.001242   10.579345   1.655766 C.ar        1 UNL1     0.0342
     29 C         -0.126913   9.175149   1.710309 C.ar        1 UNL1     0.1435
     30 C         0.87416   8.306456   1.273909 C.ar        1 UNL1     0.0774
     31 O         -1.295422   8.586662   2.046873 O.3        1 UNL1     -0.4436
     32 C         -1.185284   7.247078   1.542633 C.3        1 UNL1     0.3143
     33 C         0.303401   6.985453   1.435008 C.2        1 UNL1     0.2504
     34 C         -1.200508   11.436072   1.941975 C.3        1 UNL1     -0.0327
     35 O         -1.691259   6.367992   2.554784 O.2        1 UNL1     -0.4528
     36 C         -3.126923   3.376217   0.711895 C.3        1 UNL1     0.0854
     37 C         -2.418532   2.395529   -0.300012 C.3        1 UNL1     0.0236
     38 C         -2.512834   0.841932   0.086234 C.3        1 UNL1     0.1131
     39 C         -2.107953   0.368399   1.540231 C.3        1 UNL1     0.0200
     40 C         -0.736022   0.970551   2.273482 C.3        1 UNL1     0.0661
     41 C         0.810454   1.043904   1.580199 C.3        1 UNL1     0.0091
     42 C         2.163281   2.260539   1.814851 C.3        1 UNL1     0.0661
     43 C         3.450034   10.709158   0.084394 C.2        1 UNL1     0.2131
     44 O         3.548458   11.844454   -0.344737 O.2        1 UNL1     -0.2851
     45 O         1.486815   12.393415   1.167874 O.3        1 UNL1     -0.5056
     46 O         0.888516   5.927031   1.491888 O.2        1 UNL1     -0.2836
     47 C         3.101714   3.063509   4.179675 C.3        1 UNL1     -0.0566
     48 O         3.21278   1.22917   1.999093 O.3        1 UNL1     -0.3909
     49 C         0.690456   0.798952   0.092552 C.3        1 UNL1     -0.0577
     50 O         -1.019133   2.177735   2.951921 O.3        1 UNL1     -0.3910
     51 O         -3.598184   2.794159   1.906279 O.3        1 UNL1     -0.3753
     52 C         -1.122135   3.023673   -0.908073 C.3        1 UNL1     -0.0564
     53 O         -2.151832   -0.080247   -1.041415 O.3        1 UNL1     -0.4608
     54 C         -1.465081   -1.259416   -0.915463 C.2        1 UNL1     0.3042
     55 O         -1.904638   -2.342298   -0.530764 O.2        1 UNL1     -0.2512
     56 C         -0.034028   -1.172802   -1.364126 C.3        1 UNL1     0.0332
     57 C         -3.446391   0.291136   2.412464 C.3        1 UNL1     -0.0567
     58 C         -1.792981   7.263606   0.120676 C.3        1 UNL1     0.0210
     59 C         -5.017119   2.673229   1.994963 C.3        1 UNL1     0.0372
     60 C         -2.322241   4.565796   1.102469 C.2        1 UNL1     -0.0208
     61 C         -2.118613   5.116415   2.300008 C.2        1 UNL1     0.0882
     62 H         2.145605   4.241319   2.668736 H        1 UNL1     0.0365
     63 H         3.277872   5.940783   2.663934 H        1 UNL1     0.0576
     64 H         6.282338   5.27572   2.497654 H        1 UNL1     0.0615
     65 H         4.695294   7.966199   2.475881 H        1 UNL1     0.0622
     66 H         -3.992353   3.766486   0.158028 H        1 UNL1     0.0645
     67 H         -3.053579   2.436374   -1.202013 H        1 UNL1     0.0362
     68 H         -3.603213   0.703614   0.027385 H        1 UNL1     0.0741
     69 H         -1.917616   -0.69637   1.519095 H        1 UNL1     0.0359
     70 H         -0.607404   0.223573   3.080043 H        1 UNL1     0.0600
     71 H         1.223748   0.076431   1.926812 H        1 UNL1     0.0348
     72 H         1.498268   2.375271   2.683131 H        1 UNL1     0.0602
     73 H         -1.979748   5.058641   0.226654 H        1 UNL1     0.0628
     74 H         -2.386275   4.647919   3.247692 H        1 UNL1     0.1022
     75 H         8.564821   7.699104   1.129197 H        1 UNL1     0.0279
     76 H         8.378288   9.380479   0.826734 H        1 UNL1     0.0279
     77 H         8.769839   8.742664   2.474514 H        1 UNL1     0.0279
     78 H         6.430898   9.425959   -0.420587 H        1 UNL1     0.1553
     79 H         6.056088   7.50438   -0.726 H        1 UNL1     0.1484
     80 H         3.452255   5.358971   -2.474361 H        1 UNL1     0.0317
     81 H         3.406654   7.116053   -2.496903 H        1 UNL1     0.0317
     82 H         5.899425   7.235441   -2.752914 H        1 UNL1     0.0428
     83 H         5.132995   6.305179   -4.021338 H        1 UNL1     0.0428
     84 H         6.932649   4.095712   -0.861805 H        1 UNL1     0.0428
     85 H         7.067431   5.816889   -0.76958 H        1 UNL1     0.0428
     86 H         5.28906   4.746157   0.614538 H        1 UNL1     0.0317
     87 H         4.489501   4.092244   -0.740252 H        1 UNL1     0.0317
     88 H         6.958889   5.038382   -4.470297 H        1 UNL1     0.0429
     89 H         8.06513   5.681135   -3.254018 H        1 UNL1     0.0429
     90 H         7.399678   2.843953   -3.995914 H        1 UNL1     0.0308
     91 H         9.848144   4.287045   -2.847369 H        1 UNL1     0.0233
     92 H         9.777836   2.519179   -3.059973 H        1 UNL1     0.0233
     93 H         9.684538   3.579268   -4.449976 H        1 UNL1     0.0233
     94 H         8.087278   2.1448   -1.586066 H        1 UNL1     0.0233
     95 H         7.453376   3.735749   -1.137317 H        1 UNL1     0.0233
     96 H         6.394757   2.550994   -1.937111 H        1 UNL1     0.0233
     97 H         -2.065444   11.13225   1.359902 H        1 UNL1     0.0280
     98 H         -1.510057   11.376725   2.993599 H        1 UNL1     0.0280
     99 H         -0.971483   12.486391   1.698103 H        1 UNL1     0.0280
     100 H         1.270004   12.827636   0.361607 H        1 UNL1     0.2922
     101 H         4.044061   3.338585   4.652933 H        1 UNL1     0.0236
     102 H         2.919941   1.990194   4.223678 H        1 UNL1     0.0236
     103 H         2.324747   3.506784   4.824673 H        1 UNL1     0.0236
     104 H         2.806041   0.359032   1.819107 H        1 UNL1     0.2098
     105 H         0.300664   1.64258   -0.471509 H        1 UNL1     0.0234
     106 H         1.593992   0.413759   -0.379864 H        1 UNL1     0.0234
     107 H         0.0   0.0   0.0 H        1 UNL1     0.0234
     108 H         -0.163905   2.599895   3.162002 H        1 UNL1     0.2098
     109 H         -1.330265   3.945125   -1.469607 H        1 UNL1     0.0234
     110 H         -0.346179   3.217934   -0.159809 H        1 UNL1     0.0234
     111 H         -0.639131   2.343228   -1.621969 H        1 UNL1     0.0234
     112 H         0.422904   -0.2574   -0.976056 H        1 UNL1     0.0342
     113 H         0.540585   -2.050492   -1.072024 H        1 UNL1     0.0342
     114 H         -0.021259   -1.116605   -2.461324 H        1 UNL1     0.0342
     115 H         -3.40749   -0.523312   3.148908 H        1 UNL1     0.0234
     116 H         -3.678106   1.211325   2.952473 H        1 UNL1     0.0234
     117 H         -4.337354   0.00643   1.826743 H        1 UNL1     0.0234
     118 H         -2.748064   6.711874   0.071536 H        1 UNL1     0.0309
     119 H         -1.94297   8.274803   -0.270714 H        1 UNL1     0.0309
     120 H         -1.163959   6.745332   -0.611328 H        1 UNL1     0.0309
     121 H         -5.281917   2.665375   3.051929 H        1 UNL1     0.0524
     122 H         -5.539567   3.524808   1.528168 H        1 UNL1     0.0524
     123 H         -5.346439   1.75383   1.519202 H        1 UNL1     0.0524
@<TRIPOS>BOND
     1     1     2    1
     2     1    42    1
     3     2     3    2
     4     3     4    1
     5     4     5    2
     6     5     7    1
     7     6    75    1
     8     6    76    1
     9     6    77    1
    10     7     9   am
    11     9    10    1
    12    10    11    2
    13    10    43    1
    14    11    14    1
    15    11    15    1
    16    12    13   ar
    17    12    27   ar
    18    12    43    1
    19    13    14    1
    20    13    30   ar
    21    14    17    2
    22    15    16    1
    23    16    17    1
    24    16    18    1
    25    16    22    1
    26    18    19    1
    27    19    20    1
    28    20    21    1
    29    21    22    1
    30    23    24    1
    31    23    88    1
    32    23    89    1
    33    24    25    1
    34    24    26    1
    35    24    90    1
    36    25    91    1
    37    25    92    1
    38    25    93    1
    39    26    94    1
    40    26    95    1
    41    26    96    1
    42    27    28   ar
    43    28    29   ar
    44    29    30   ar
    45    29    31    1
    46    30    33    1
    47    31    32    1
    48    32    33    1
    49    32    35    1
    50    34    97    1
    51    34    98    1
    52    34    99    1
    53    35    61    1
    54    36    37    1
    55    36    60    1
    56    37    38    1
    57    38    39    1
    58    39    40    1
    59    40    41    1
    60    41    42    1
    61    45   100    1
    62    47   101    1
    63    47   102    1
    64    47   103    1
    65    48   104    1
    66    49   105    1
    67    49   106    1
    68    49   107    1
    69    50   108    1
    70    51    59    1
    71    52   109    1
    72    52   110    1
    73    52   111    1
    74    53    54    1
    75    54    55    2
    76    54    56    1
    77    56   112    1
    78    56   113    1
    79    56   114    1
    80    57   115    1
    81    57   116    1
    82    57   117    1
    83    58   118    1
    84    58   119    1
    85    58   120    1
    86    59   121    1
    87    59   122    1
    88    59   123    1
    89    60    61    2
    90     1    47    1
    91     1    62    1
    92     2    63    1
    93     3    64    1
    94     4    65    1
    95     5     6    1
    96     7     8    2
    97     9    78    1
    98    15    79    1
    99    18    80    1
   100    18    81    1
   101    19    82    1
   102    19    83    1
   103    20    23    1
   104    21    84    1
   105    21    85    1
   106    22    86    1
   107    22    87    1
   108    27    45    1
   109    28    34    1
   110    32    58    1
   111    33    46    2
   112    36    51    1
   113    36    66    1
   114    37    52    1
   115    37    67    1
   116    38    53    1
   117    38    68    1
   118    42    48    1
   119    42    72    1
   120    43    44    2
   121    60    73    1
   122    61    74    1
   123    39    69    1
   124    39    57    1
   125    40    70    1
   126    40    50    1
   127    41    71    1
   128    41    49    1
