@<TRIPOS>MOLECULE
*****
 123 128 0 0 0
SMALL
GASTEIGER

@<TRIPOS>ATOM
     1 C         -3.579752   1.824804   3.701301 C.3        1 UNL1     0.0009
     2 C         -3.900615   2.173985   5.49355 C.2        1 UNL1     -0.0787
     3 C         -4.460157   1.780077   6.769401 C.2        1 UNL1     -0.0649
     4 C         -4.313695   2.571626   8.258816 C.2        1 UNL1     -0.0542
     5 C         -4.407473   2.426456   9.664949 C.2        1 UNL1     0.0115
     6 C         -4.868499   1.473468   10.801871 C.3        1 UNL1     -0.0348
     7 C         -3.71046   3.523268   10.607375 C.2        1 UNL1     0.2441
     8 O         -4.336644   4.408615   11.173573 O.2        1 UNL1     -0.2702
     9 N         -2.375409   3.244288   10.947902 N.am        1 UNL1     -0.2772
     10 C         -1.520783   3.755144   9.998185 C.2        1 UNL1     0.1049
     11 C         -1.333402   3.011045   8.923277 C.2        1 UNL1     0.0801
     12 C         -1.013585   5.83054   8.697103 C.ar        1 UNL1     0.0753
     13 C         -1.028044   5.0064   7.526978 C.ar        1 UNL1     0.0305
     14 C         -1.058218   3.548389   7.618321 C.2        1 UNL1     0.0924
     15 N         -1.675661   1.732927   8.687053 N.pl3        1 UNL1     -0.3170
     16 C         -1.090731   1.346439   7.430575 C.3        1 UNL1     0.1275
     17 N         -0.976888   2.635696   6.654317 N.2        1 UNL1     -0.2557
     18 C         0.338822   0.89671   7.716624 C.3        1 UNL1     0.0016
     19 C         0.301227   -0.20999   8.758445 C.3        1 UNL1     0.0026
     20 N         -0.501076   -1.31069   8.242888 N.3        1 UNL1     -0.3018
     21 C         -1.876145   -0.961217   7.880367 C.3        1 UNL1     0.0026
     22 C         -1.814506   0.148724   6.829593 C.3        1 UNL1     0.0016
     23 C         -0.356895   -2.525786   9.019674 C.3        1 UNL1     0.0012
     24 C         -1.37614   -2.554128   10.169497 C.3        1 UNL1     -0.0339
     25 C         -1.251709   -1.308424   11.06213 C.3        1 UNL1     -0.0615
     26 C         -2.782062   -2.706695   9.615525 C.3        1 UNL1     -0.0615
     27 C         -0.863009   7.21219   8.604961 C.ar        1 UNL1     0.1347
     28 C         -0.6793   7.876485   7.405372 C.ar        1 UNL1     0.0342
     29 C         -0.745979   7.05045   6.263276 C.ar        1 UNL1     0.1435
     30 C         -0.932457   5.669559   6.33803 C.ar        1 UNL1     0.0774
     31 O         -0.476797   7.530577   5.029572 O.3        1 UNL1     -0.4436
     32 C         -0.180651   6.366147   4.243905 C.3        1 UNL1     0.3143
     33 C         -0.860679   5.219132   4.963719 C.2        1 UNL1     0.2504
     34 C         -0.262522   9.312259   7.24742 C.3        1 UNL1     -0.0327
     35 O         -0.846174   6.521497   2.984462 O.2        1 UNL1     -0.4528
     36 C         1.285685   4.672485   0.445876 C.3        1 UNL1     0.0854
     37 C         1.735592   3.160867   0.434973 C.3        1 UNL1     0.0236
     38 C         1.357711   2.35284   -0.897709 C.3        1 UNL1     0.1131
     39 C         -0.125813   2.391628   -1.44536 C.3        1 UNL1     0.0200
     40 C         -1.416606   2.238484   -0.399971 C.3        1 UNL1     0.0661
     41 C         -1.602619   1.033379   0.779321 C.3        1 UNL1     0.0091
     42 C         -2.418192   1.091208   2.421545 C.3        1 UNL1     0.0661
     43 C         -1.07445   5.156131   10.017605 C.2        1 UNL1     0.2131
     44 O         -0.687132   5.667092   11.052807 O.2        1 UNL1     -0.2851
     45 O         -0.905481   7.946093   9.788608 O.3        1 UNL1     -0.5056
     46 O         -1.270978   4.177542   4.502635 O.2        1 UNL1     -0.2836
     47 C         -4.878135   2.020014   2.873003 C.3        1 UNL1     -0.0566
     48 O         -3.172301   -0.169384   2.218218 O.3        1 UNL1     -0.3909
     49 C         -0.278457   0.327582   0.968902 C.3        1 UNL1     -0.0577
     50 O         -1.782495   3.495762   0.132102 O.3        1 UNL1     -0.3910
     51 O         0.463937   5.078403   -0.625288 O.3        1 UNL1     -0.3753
     52 C         1.637043   2.51423   1.855219 C.3        1 UNL1     -0.0564
     53 O         2.087157   1.048622   -1.036454 O.3        1 UNL1     -0.4608
     54 C         3.342022   0.784133   -0.553454 C.2        1 UNL1     0.3042
     55 O         3.761281   -0.283549   -0.108353 O.2        1 UNL1     -0.2512
     56 C         4.283679   1.950175   -0.655135 C.3        1 UNL1     0.0332
     57 C         -0.199507   3.538715   -2.557536 C.3        1 UNL1     -0.0567
     58 C         1.350783   6.165026   4.319998 C.3        1 UNL1     0.0210
     59 C         0.927453   4.688951   -1.917319 C.3        1 UNL1     0.0372
     60 C         0.613133   5.119412   1.696113 C.2        1 UNL1     -0.0208
     61 C         -0.485818   5.854518   1.871237 C.2        1 UNL1     0.0882
     62 H         -3.022908   2.767414   3.637101 H        1 UNL1     0.0365
     63 H         -3.491456   3.182664   5.580875 H        1 UNL1     0.0576
     64 H         -4.915933   0.798293   6.915949 H        1 UNL1     0.0615
     65 H         -3.927793   3.559291   7.992207 H        1 UNL1     0.0622
     66 H         2.224981   5.240448   0.389423 H        1 UNL1     0.0645
     67 H         2.835721   3.209141   0.357865 H        1 UNL1     0.0362
     68 H         1.954106   2.917488   -1.630518 H        1 UNL1     0.0741
     69 H         -0.268822   1.559812   -2.122145 H        1 UNL1     0.0359
     70 H         -2.220066   1.999601   -1.122775 H        1 UNL1     0.0600
     71 H         -2.168986   0.279686   0.197829 H        1 UNL1     0.0348
     72 H         -2.819155   1.943289   1.853652 H        1 UNL1     0.0602
     73 H         1.221258   4.867352   2.529118 H        1 UNL1     0.0628
     74 H         -1.192246   6.105862   1.079389 H        1 UNL1     0.1022
     75 H         -5.243637   2.05862   11.675886 H        1 UNL1     0.0279
     76 H         -5.710141   0.822054   10.577442 H        1 UNL1     0.0279
     77 H         -4.034698   0.917456   11.255003 H        1 UNL1     0.0279
     78 H         -2.233362   2.236807   10.97762 H        1 UNL1     0.1553
     79 H         -1.896751   1.072844   9.409785 H        1 UNL1     0.1484
     80 H         0.798858   0.552075   6.782623 H        1 UNL1     0.0317
     81 H         0.947713   1.733267   8.075894 H        1 UNL1     0.0317
     82 H         -0.092137   0.149796   9.720594 H        1 UNL1     0.0428
     83 H         1.330796   -0.514584   8.948867 H        1 UNL1     0.0428
     84 H         -2.431855   -1.785209   7.42207 H        1 UNL1     0.0428
     85 H         -2.47545   -0.692627   8.761281 H        1 UNL1     0.0428
     86 H         -2.825392   0.284883   6.49261 H        1 UNL1     0.0317
     87 H         -1.294707   -0.211965   5.933598 H        1 UNL1     0.0317
     88 H         -0.552838   -3.379519   8.357827 H        1 UNL1     0.0429
     89 H         0.667919   -2.639207   9.396058 H        1 UNL1     0.0429
     90 H         -1.198555   -3.443942   10.785052 H        1 UNL1     0.0308
     91 H         -2.039383   -0.58148   10.842532 H        1 UNL1     0.0233
     92 H         -1.301801   -1.583436   12.118287 H        1 UNL1     0.0233
     93 H         -0.294332   -0.791007   10.925951 H        1 UNL1     0.0233
     94 H         -3.512504   -2.295109   10.320427 H        1 UNL1     0.0233
     95 H         -2.874654   -2.156912   8.674713 H        1 UNL1     0.0233
     96 H         -3.028573   -3.756979   9.436346 H        1 UNL1     0.0233
     97 H         0.620378   9.413956   6.623419 H        1 UNL1     0.0280
     98 H         -1.04143   9.918843   6.767197 H        1 UNL1     0.0280
     99 H         -0.037561   9.742257   8.237161 H        1 UNL1     0.0280
     100 H         -0.408736   8.745209   9.771841 H        1 UNL1     0.2922
     101 H         -4.887499   3.01727   2.433629 H        1 UNL1     0.0236
     102 H         -5.784405   1.815245   3.441972 H        1 UNL1     0.0236
     103 H         -4.926501   1.333926   2.010949 H        1 UNL1     0.0236
     104 H         -2.657356   -0.724814   1.600723 H        1 UNL1     0.2098
     105 H         0.518729   0.962469   1.347354 H        1 UNL1     0.0234
     106 H         -0.332862   -0.595184   1.546371 H        1 UNL1     0.0234
     107 H         0.0   -0.0   0.0 H        1 UNL1     0.0234
     108 H         -2.221141   3.996605   -0.582401 H        1 UNL1     0.2098
     109 H         1.728399   1.419605   1.821147 H        1 UNL1     0.0234
     110 H         2.365732   2.920824   2.564751 H        1 UNL1     0.0234
     111 H         0.665696   2.71693   2.325692 H        1 UNL1     0.0234
     112 H         5.303359   1.626177   -0.425734 H        1 UNL1     0.0342
     113 H         4.23667   2.43064   -1.631243 H        1 UNL1     0.0342
     114 H         3.989765   2.695142   0.097064 H        1 UNL1     0.0342
     115 H         -0.113701   4.541344   -2.116447 H        1 UNL1     0.0234
     116 H         0.564284   3.454752   -3.33318 H        1 UNL1     0.0234
     117 H         -1.182782   3.607702   -3.053874 H        1 UNL1     0.0234
     118 H         1.700682   5.37944   3.627587 H        1 UNL1     0.0309
     119 H         1.91466   7.084402   4.132938 H        1 UNL1     0.0309
     120 H         1.678904   5.802185   5.300197 H        1 UNL1     0.0309
     121 H         0.60753   5.452138   -2.626227 H        1 UNL1     0.0524
     122 H         2.0275   4.630023   -1.966933 H        1 UNL1     0.0524
     123 H         0.50997   3.724221   -2.191359 H        1 UNL1     0.0524
@<TRIPOS>BOND
     1     1     2    1
     2     1    42    1
     3     2     3    2
     4     3     4    1
     5     4     5    2
     6     5     7    1
     7     6    75    1
     8     6    76    1
     9     6    77    1
    10     7     9   am
    11     9    10    1
    12    10    11    2
    13    10    43    1
    14    11    14    1
    15    11    15    1
    16    12    13   ar
    17    12    27   ar
    18    12    43    1
    19    13    14    1
    20    13    30   ar
    21    14    17    2
    22    15    16    1
    23    16    17    1
    24    16    18    1
    25    16    22    1
    26    18    19    1
    27    19    20    1
    28    20    21    1
    29    21    22    1
    30    23    24    1
    31    23    88    1
    32    23    89    1
    33    24    25    1
    34    24    26    1
    35    24    90    1
    36    25    91    1
    37    25    92    1
    38    25    93    1
    39    26    94    1
    40    26    95    1
    41    26    96    1
    42    27    28   ar
    43    28    29   ar
    44    29    30   ar
    45    29    31    1
    46    30    33    1
    47    31    32    1
    48    32    33    1
    49    32    35    1
    50    34    97    1
    51    34    98    1
    52    34    99    1
    53    35    61    1
    54    36    37    1
    55    36    60    1
    56    37    38    1
    57    38    39    1
    58    39    40    1
    59    40    41    1
    60    41    42    1
    61    45   100    1
    62    47   101    1
    63    47   102    1
    64    47   103    1
    65    48   104    1
    66    49   105    1
    67    49   106    1
    68    49   107    1
    69    50   108    1
    70    51    59    1
    71    52   109    1
    72    52   110    1
    73    52   111    1
    74    53    54    1
    75    54    55    2
    76    54    56    1
    77    56   112    1
    78    56   113    1
    79    56   114    1
    80    57   115    1
    81    57   116    1
    82    57   117    1
    83    58   118    1
    84    58   119    1
    85    58   120    1
    86    59   121    1
    87    59   122    1
    88    59   123    1
    89    60    61    2
    90     1    47    1
    91     1    62    1
    92     2    63    1
    93     3    64    1
    94     4    65    1
    95     5     6    1
    96     7     8    2
    97     9    78    1
    98    15    79    1
    99    18    80    1
   100    18    81    1
   101    19    82    1
   102    19    83    1
   103    20    23    1
   104    21    84    1
   105    21    85    1
   106    22    86    1
   107    22    87    1
   108    27    45    1
   109    28    34    1
   110    32    58    1
   111    33    46    2
   112    36    51    1
   113    36    66    1
   114    37    52    1
   115    37    67    1
   116    38    53    1
   117    38    68    1
   118    42    48    1
   119    42    72    1
   120    43    44    2
   121    60    73    1
   122    61    74    1
   123    39    69    1
   124    39    57    1
   125    40    70    1
   126    40    50    1
   127    41    71    1
   128    41    49    1
