@<TRIPOS>MOLECULE
*****
 123 128 0 0 0
SMALL
GASTEIGER

@<TRIPOS>ATOM
     1 C         3.782953   3.739529   0.756885 C.3        1 UNL1     0.0009
     2 C         4.381433   5.375872   0.123449 C.2        1 UNL1     -0.0787
     3 C         5.379579   6.16773   -0.564091 C.2        1 UNL1     -0.0649
     4 C         5.29898   7.805304   -0.986243 C.2        1 UNL1     -0.0542
     5 C         5.82386   8.813491   -1.831901 C.2        1 UNL1     0.0115
     6 C         6.953685   9.139594   -2.847024 C.3        1 UNL1     -0.0348
     7 C         4.989569   10.170001   -2.033963 C.2        1 UNL1     0.2441
     8 O         5.274131   11.216728   -1.468355 O.2        1 UNL1     -0.2702
     9 N         4.072869   10.144496   -3.099403 N.am        1 UNL1     -0.2772
     10 C         2.859013   9.653263   -2.676831 C.2        1 UNL1     0.1049
     11 C         2.746247   8.33808   -2.634408 C.2        1 UNL1     0.0801
     12 C         1.137886   9.89742   -0.878098 C.ar        1 UNL1     0.0753
     13 C         1.207196   8.475769   -0.727393 C.ar        1 UNL1     0.0305
     14 C         1.917066   7.637858   -1.691262 C.2        1 UNL1     0.0924
     15 N         3.551607   7.385452   -3.134831 N.pl3        1 UNL1     -0.3170
     16 C         2.890142   6.118618   -2.967946 C.3        1 UNL1     0.1275
     17 N         2.000643   6.312484   -1.764231 N.2        1 UNL1     -0.2557
     18 C         1.955654   5.935958   -4.160033 C.3        1 UNL1     0.0016
     19 C         2.769428   6.055636   -5.438719 C.3        1 UNL1     0.0026
     20 N         3.810182   5.036939   -5.4279 N.3        1 UNL1     -0.3018
     21 C         4.723072   5.092901   -4.28428 C.3        1 UNL1     0.0026
     22 C         3.884978   4.966228   -3.01092 C.3        1 UNL1     0.0016
     23 C         4.446951   4.867557   -6.718822 C.3        1 UNL1     0.0012
     24 C         3.479115   4.209088   -7.714547 C.3        1 UNL1     -0.0339
     25 C         4.222691   3.289412   -8.697067 C.3        1 UNL1     -0.0615
     26 C         2.38947   3.462116   -6.965223 C.3        1 UNL1     -0.0615
     27 C         0.360002   10.676582   -0.024914 C.ar        1 UNL1     0.1347
     28 C         -0.420416   10.145355   0.986419 C.ar        1 UNL1     0.0342
     29 C         -0.298297   8.748772   1.147067 C.ar        1 UNL1     0.1435
     30 C         0.505068   7.959697   0.32294 C.ar        1 UNL1     0.0774
     31 O         -1.077262   8.068579   2.016295 O.3        1 UNL1     -0.4436
     32 C         -1.01427   6.705646   1.569845 C.3        1 UNL1     0.3143
     33 C         0.276911   6.605799   0.783018 C.2        1 UNL1     0.2504
     34 C         -1.466821   10.884307   1.773241 C.3        1 UNL1     -0.0327
     35 O         -0.858751   5.88319   2.732872 O.2        1 UNL1     -0.4528
     36 C         -2.519535   2.573955   1.896899 C.3        1 UNL1     0.0854
     37 C         -2.221084   1.581759   0.707783 C.3        1 UNL1     0.0236
     38 C         -1.894023   0.075457   1.150307 C.3        1 UNL1     0.1131
     39 C         -0.798362   -0.197036   2.258253 C.3        1 UNL1     0.0200
     40 C         0.65024   0.629682   2.235304 C.3        1 UNL1     0.0661
     41 C         1.671788   0.807311   0.892733 C.3        1 UNL1     0.0091
     42 C         2.782087   2.187871   0.416612 C.3        1 UNL1     0.0661
     43 C         1.851094   10.505517   -2.028669 C.2        1 UNL1     0.2131
     44 O         1.570111   11.594538   -2.49538 O.2        1 UNL1     -0.2851
     45 O         0.383554   12.057234   -0.211148 O.3        1 UNL1     -0.5056
     46 O         0.97242   5.632458   0.596665 O.2        1 UNL1     -0.2836
     47 C         4.574737   3.331108   2.028205 C.3        1 UNL1     -0.0566
     48 O         3.938475   1.307284   0.122585 O.3        1 UNL1     -0.3909
     49 C         0.916688   0.398851   -0.352449 C.3        1 UNL1     -0.0577
     50 O         0.536086   1.859945   2.921703 O.3        1 UNL1     -0.3910
     51 O         -2.293762   2.067677   3.193101 O.3        1 UNL1     -0.3753
     52 C         -1.461488   2.287848   -0.462432 C.3        1 UNL1     -0.0564
     53 O         -1.961507   -0.910412   0.020778 O.3        1 UNL1     -0.4608
     54 C         -2.426616   -2.196052   0.114239 C.2        1 UNL1     0.3042
     55 O         -1.760586   -3.229156   0.168445 O.2        1 UNL1     -0.2512
     56 C         -3.922701   -2.288617   0.213607 C.3        1 UNL1     0.0332
     57 C         -1.554797   -0.336438   3.66059 C.3        1 UNL1     -0.0567
     58 C         -2.204485   6.506711   0.602714 C.3        1 UNL1     0.0210
     59 C         -1.572465   2.941233   4.060567 C.3        1 UNL1     0.0372
     60 C         -1.812616   3.881293   1.81755 C.2        1 UNL1     -0.0208
     61 C         -1.163777   4.571551   2.756323 C.2        1 UNL1     0.0882
     62 H         2.865889   4.230848   1.103743 H        1 UNL1     0.0365
     63 H         3.60091   6.038791   0.502649 H        1 UNL1     0.0576
     64 H         6.250679   5.70708   -1.035358 H        1 UNL1     0.0615
     65 H         4.45221   8.182525   -0.406443 H        1 UNL1     0.0622
     66 H         -3.590115   2.804072   1.802287 H        1 UNL1     0.0645
     67 H         -3.198853   1.457114   0.210801 H        1 UNL1     0.0362
     68 H         -2.854172   -0.191583   1.617559 H        1 UNL1     0.0741
     69 H         -0.483165   -1.229668   2.189478 H        1 UNL1     0.0359
     70 H         1.24618   -0.010984   2.913141 H        1 UNL1     0.0600
     71 H         2.337222   -0.066003   1.039291 H        1 UNL1     0.0348
     72 H         2.584183   2.314565   1.490901 H        1 UNL1     0.0602
     73 H         -1.990686   4.317438   0.866069 H        1 UNL1     0.0628
     74 H         -0.890717   4.175376   3.734956 H        1 UNL1     0.1022
     75 H         7.945363   8.818557   -2.446345 H        1 UNL1     0.0279
     76 H         6.90971   8.624332   -3.803915 H        1 UNL1     0.0279
     77 H         7.111273   10.220539   -2.975185 H        1 UNL1     0.0279
     78 H         4.415908   9.525525   -3.831029 H        1 UNL1     0.1553
     79 H         4.233197   7.552609   -3.852066 H        1 UNL1     0.1484
     80 H         1.468449   4.956238   -4.085563 H        1 UNL1     0.0317
     81 H         1.156615   6.685004   -4.149224 H        1 UNL1     0.0317
     82 H         3.200704   7.060905   -5.554252 H        1 UNL1     0.0428
     83 H         2.083467   5.924053   -6.276092 H        1 UNL1     0.0428
     84 H         5.444497   4.270295   -4.258247 H        1 UNL1     0.0428
     85 H         5.34873   5.99593   -4.304472 H        1 UNL1     0.0428
     86 H         4.5917   4.877214   -2.2068 H        1 UNL1     0.0317
     87 H         3.364493   4.000796   -2.999395 H        1 UNL1     0.0317
     88 H         4.717282   5.86126   -7.09931 H        1 UNL1     0.0429
     89 H         5.377705   4.2923   -6.631933 H        1 UNL1     0.0429
     90 H         2.966599   4.990787   -8.287686 H        1 UNL1     0.0308
     91 H         4.937821   2.64591   -8.175917 H        1 UNL1     0.0233
     92 H         3.517478   2.666148   -9.251888 H        1 UNL1     0.0233
     93 H         4.789906   3.852309   -9.448232 H        1 UNL1     0.0233
     94 H         1.944879   2.696123   -7.609761 H        1 UNL1     0.0233
     95 H         2.81348   2.961742   -6.09012 H        1 UNL1     0.0233
     96 H         1.596354   4.138847   -6.635116 H        1 UNL1     0.0233
     97 H         -1.111308   11.851309   2.116383 H        1 UNL1     0.0280
     98 H         -2.365457   11.088881   1.176702 H        1 UNL1     0.0280
     99 H         -1.754239   10.288923   2.655286 H        1 UNL1     0.0280
     100 H         -0.283053   12.38586   -0.788437 H        1 UNL1     0.2922
     101 H         3.955073   3.482666   2.911779 H        1 UNL1     0.0236
     102 H         5.537874   3.833247   2.113096 H        1 UNL1     0.0236
     103 H         4.816945   2.255263   2.037431 H        1 UNL1     0.0236
     104 H         3.597817   0.396942   0.021588 H        1 UNL1     0.2098
     105 H         0.685092   1.219542   -1.02672 H        1 UNL1     0.0234
     106 H         1.361977   -0.429052   -0.90401 H        1 UNL1     0.0234
     107 H         0.0   -0.0   0.0 H        1 UNL1     0.0234
     108 H         0.510207   1.657929   3.876841 H        1 UNL1     0.2098
     109 H         -1.490201   1.700877   -1.391061 H        1 UNL1     0.0234
     110 H         -1.822538   3.30304   -0.659333 H        1 UNL1     0.0234
     111 H         -0.396955   2.424339   -0.229868 H        1 UNL1     0.0234
     112 H         -4.225428   -3.336052   0.306254 H        1 UNL1     0.0342
     113 H         -4.316047   -1.693965   1.036718 H        1 UNL1     0.0342
     114 H         -4.353409   -1.894645   -0.717221 H        1 UNL1     0.0342
     115 H         -1.570343   -1.376442   4.014622 H        1 UNL1     0.0234
     116 H         -1.128219   0.275483   4.457855 H        1 UNL1     0.0234
     117 H         -2.634393   -0.115125   3.601986 H        1 UNL1     0.0234
     118 H         -3.046388   5.979248   1.084366 H        1 UNL1     0.0309
     119 H         -2.569021   7.444444   0.171467 H        1 UNL1     0.0309
     120 H         -1.95348   5.860301   -0.245376 H        1 UNL1     0.0309
     121 H         -1.07085   2.325057   4.806265 H        1 UNL1     0.0524
     122 H         -0.796083   3.513924   3.526439 H        1 UNL1     0.0524
     123 H         -2.252788   3.636135   4.544681 H        1 UNL1     0.0524
@<TRIPOS>BOND
     1     1     2    1
     2     1    42    1
     3     2     3    2
     4     3     4    1
     5     4     5    2
     6     5     7    1
     7     6    75    1
     8     6    76    1
     9     6    77    1
    10     7     9   am
    11     9    10    1
    12    10    11    2
    13    10    43    1
    14    11    14    1
    15    11    15    1
    16    12    13   ar
    17    12    27   ar
    18    12    43    1
    19    13    14    1
    20    13    30   ar
    21    14    17    2
    22    15    16    1
    23    16    17    1
    24    16    18    1
    25    16    22    1
    26    18    19    1
    27    19    20    1
    28    20    21    1
    29    21    22    1
    30    23    24    1
    31    23    88    1
    32    23    89    1
    33    24    25    1
    34    24    26    1
    35    24    90    1
    36    25    91    1
    37    25    92    1
    38    25    93    1
    39    26    94    1
    40    26    95    1
    41    26    96    1
    42    27    28   ar
    43    28    29   ar
    44    29    30   ar
    45    29    31    1
    46    30    33    1
    47    31    32    1
    48    32    33    1
    49    32    35    1
    50    34    97    1
    51    34    98    1
    52    34    99    1
    53    35    61    1
    54    36    37    1
    55    36    60    1
    56    37    38    1
    57    38    39    1
    58    39    40    1
    59    40    41    1
    60    41    42    1
    61    45   100    1
    62    47   101    1
    63    47   102    1
    64    47   103    1
    65    48   104    1
    66    49   105    1
    67    49   106    1
    68    49   107    1
    69    50   108    1
    70    51    59    1
    71    52   109    1
    72    52   110    1
    73    52   111    1
    74    53    54    1
    75    54    55    2
    76    54    56    1
    77    56   112    1
    78    56   113    1
    79    56   114    1
    80    57   115    1
    81    57   116    1
    82    57   117    1
    83    58   118    1
    84    58   119    1
    85    58   120    1
    86    59   121    1
    87    59   122    1
    88    59   123    1
    89    60    61    2
    90     1    47    1
    91     1    62    1
    92     2    63    1
    93     3    64    1
    94     4    65    1
    95     5     6    1
    96     7     8    2
    97     9    78    1
    98    15    79    1
    99    18    80    1
   100    18    81    1
   101    19    82    1
   102    19    83    1
   103    20    23    1
   104    21    84    1
   105    21    85    1
   106    22    86    1
   107    22    87    1
   108    27    45    1
   109    28    34    1
   110    32    58    1
   111    33    46    2
   112    36    51    1
   113    36    66    1
   114    37    52    1
   115    37    67    1
   116    38    53    1
   117    38    68    1
   118    42    48    1
   119    42    72    1
   120    43    44    2
   121    60    73    1
   122    61    74    1
   123    39    69    1
   124    39    57    1
   125    40    70    1
   126    40    50    1
   127    41    71    1
   128    41    49    1
