@<TRIPOS>MOLECULE
*****
 123 128 0 0 0
SMALL
GASTEIGER

@<TRIPOS>ATOM
     1 C         3.01532   -2.482535   3.277105 C.3        1 UNL1     0.0009
     2 C         3.600164   -2.480773   5.036363 C.2        1 UNL1     -0.0787
     3 C         4.492439   -1.984645   6.062885 C.2        1 UNL1     -0.0649
     4 C         4.460866   -2.323003   7.721461 C.2        1 UNL1     -0.0542
     5 C         4.876812   -1.886721   9.00354 C.2        1 UNL1     0.0115
     6 C         5.789172   -0.876706   9.752401 C.3        1 UNL1     -0.0348
     7 C         4.134529   -2.470803   10.301559 C.2        1 UNL1     0.2441
     8 O         4.618534   -3.344194   11.008279 O.2        1 UNL1     -0.2702
     9 N         3.014125   -1.73281   10.721332 N.am        1 UNL1     -0.2772
     10 C         1.880709   -2.172082   10.07656 C.2        1 UNL1     0.1049
     11 C         1.670411   -1.680237   8.869048 C.2        1 UNL1     0.0801
     12 C         0.605971   -4.244697   9.496349 C.ar        1 UNL1     0.0753
     13 C         0.587042   -3.761679   8.149151 C.ar        1 UNL1     0.0305
     14 C         1.004425   -2.401048   7.818205 C.2        1 UNL1     0.0924
     15 N         2.269374   -0.656385   8.236991 N.pl3        1 UNL1     -0.3170
     16 C         1.555152   -0.418722   7.010754 C.3        1 UNL1     0.1275
     17 N         0.960034   -1.759045   6.654251 N.2        1 UNL1     -0.2557
     18 C         0.377525   0.492691   7.34275 C.3        1 UNL1     0.0016
     19 C         0.909126   1.749403   8.013322 C.3        1 UNL1     0.0026
     20 N         1.840075   2.405753   7.105816 N.3        1 UNL1     -0.3018
     21 C         2.975862   1.585418   6.679895 C.3        1 UNL1     0.0026
     22 C         2.418868   0.330813   6.004901 C.3        1 UNL1     0.0016
     23 C         2.172663   3.754943   7.517781 C.3        1 UNL1     0.0012
     24 C         1.499898   4.090092   8.858236 C.3        1 UNL1     -0.0339
     25 C         2.033432   5.409121   9.440956 C.3        1 UNL1     -0.0615
     26 C         -0.009152   4.123385   8.689591 C.3        1 UNL1     -0.0615
     27 C         0.094028   -5.498823   9.820694 C.ar        1 UNL1     0.1347
     28 C         -0.495967   -6.339698   8.893933 C.ar        1 UNL1     0.0342
     29 C         -0.459281   -5.863995   7.565956 C.ar        1 UNL1     0.1435
     30 C         0.082804   -4.625412   7.220591 C.ar        1 UNL1     0.0774
     31 O         -1.090354   -6.516967   6.565765 O.3        1 UNL1     -0.4436
     32 C         -1.237008   -5.535936   5.528006 C.3        1 UNL1     0.3143
     33 C         -0.154635   -4.510065   5.796834 C.2        1 UNL1     0.2504
     34 C         -1.286788   -7.579554   9.20612 C.3        1 UNL1     -0.0327
     35 O         -0.907735   -6.174728   4.288337 O.2        1 UNL1     -0.4528
     36 C         -2.977444   -4.422131   1.632627 C.3        1 UNL1     0.0854
     37 C         -3.02123   -2.892073   1.252458 C.3        1 UNL1     0.0236
     38 C         -2.734418   -2.571026   -0.292343 C.3        1 UNL1     0.1131
     39 C         -1.45555   -3.180036   -0.996526 C.3        1 UNL1     0.0200
     40 C         0.019008   -3.179783   -0.216708 C.3        1 UNL1     0.0661
     41 C         0.744228   -1.844274   0.537005 C.3        1 UNL1     0.0091
     42 C         1.83949   -1.756572   2.006057 C.3        1 UNL1     0.0661
     43 C         1.107431   -3.329268   10.551236 C.2        1 UNL1     0.2131
     44 O         0.825631   -3.442635   11.73042 O.2        1 UNL1     -0.2851
     45 O         0.192446   -5.912285   11.147646 O.3        1 UNL1     -0.5056
     46 O         0.402146   -3.778114   5.009372 O.2        1 UNL1     -0.2836
     47 C         4.021564   -3.246602   2.375077 C.3        1 UNL1     -0.0566
     48 O         2.829978   -0.864618   1.356082 O.3        1 UNL1     -0.3909
     49 C         -0.288757   -0.750306   0.690854 C.3        1 UNL1     -0.0577
     50 O         0.155613   -4.32711   0.597358 O.3        1 UNL1     -0.3910
     51 O         -2.525238   -5.295232   0.622362 O.3        1 UNL1     -0.3753
     52 C         -2.470602   -1.990199   2.405013 C.3        1 UNL1     -0.0564
     53 O         -3.121394   -1.178998   -0.698341 O.3        1 UNL1     -0.4608
     54 C         -3.511076   -0.796694   -1.95529 C.2        1 UNL1     0.3042
     55 O         -3.737624   -1.524907   -2.920806 O.2        1 UNL1     -0.2512
     56 C         -3.722649   0.683991   -2.095008 C.3        1 UNL1     0.0332
     57 C         -1.906773   -4.523961   -1.737093 C.3        1 UNL1     -0.0567
     58 C         -2.617371   -4.873176   5.744517 C.3        1 UNL1     0.0210
     59 C         -2.839059   -4.886147   -0.708063 C.3        1 UNL1     0.0372
     60 C         -2.197051   -4.743403   2.858568 C.2        1 UNL1     -0.0208
     61 C         -1.308972   -5.711358   3.089052 C.2        1 UNL1     0.0882
     62 H         2.236663   -3.202376   3.556808 H        1 UNL1     0.0365
     63 H         2.975599   -3.270388   5.459326 H        1 UNL1     0.0576
     64 H         5.202545   -1.178959   5.863569 H        1 UNL1     0.0615
     65 H         3.790491   -3.183255   7.799223 H        1 UNL1     0.0622
     66 H         -4.020822   -4.679109   1.863648 H        1 UNL1     0.0645
     67 H         -4.088972   -2.625146   1.33753 H        1 UNL1     0.0362
     68 H         -3.592659   -3.086494   -0.749767 H        1 UNL1     0.0741
     69 H         -1.24914   -2.61261   -1.894207 H        1 UNL1     0.0359
     70 H         0.689532   -3.369362   -1.076659 H        1 UNL1     0.0600
     71 H         1.35055   -1.453582   -0.303644 H        1 UNL1     0.0348
     72 H         1.884825   -2.797983   1.655739 H        1 UNL1     0.0602
     73 H         -2.535642   -4.132508   3.658201 H        1 UNL1     0.0628
     74 H         -0.868807   -6.341385   2.315388 H        1 UNL1     0.1022
     75 H         6.396327   -1.39913   10.530521 H        1 UNL1     0.0279
     76 H         6.550523   -0.377192   9.157507 H        1 UNL1     0.0279
     77 H         5.219748   -0.162512   10.365086 H        1 UNL1     0.0279
     78 H         3.141706   -0.751646   10.482338 H        1 UNL1     0.1553
     79 H         2.79511   0.057433   8.707096 H        1 UNL1     0.1484
     80 H         -0.16268   0.729939   6.418273 H        1 UNL1     0.0317
     81 H         -0.335916   -0.014059   8.001429 H        1 UNL1     0.0317
     82 H         1.388299   1.524732   8.977598 H        1 UNL1     0.0428
     83 H         0.052875   2.384296   8.243094 H        1 UNL1     0.0428
     84 H         3.615403   2.073236   5.937714 H        1 UNL1     0.0428
     85 H         3.655999   1.364291   7.514062 H        1 UNL1     0.0428
     86 H         3.26993   -0.177141   5.590577 H        1 UNL1     0.0317
     87 H         1.834116   0.609738   5.119824 H        1 UNL1     0.0317
     88 H         3.261108   3.813535   7.648733 H        1 UNL1     0.0429
     89 H         1.901878   4.485989   6.74511 H        1 UNL1     0.0429
     90 H         1.703629   3.284585   9.573683 H        1 UNL1     0.0308
     91 H         1.256412   5.940804   9.998321 H        1 UNL1     0.0233
     92 H         2.884609   5.223821   10.100327 H        1 UNL1     0.0233
     93 H         2.392424   6.09423   8.663405 H        1 UNL1     0.0233
     94 H         -0.26809   4.354831   7.650736 H        1 UNL1     0.0233
     95 H         -0.433989   3.145537   8.933083 H        1 UNL1     0.0233
     96 H         -0.466373   4.877763   9.33599 H        1 UNL1     0.0233
     97 H         -2.230259   -7.349466   9.692076 H        1 UNL1     0.0280
     98 H         -1.544916   -8.144611   8.300948 H        1 UNL1     0.0280
     99 H         -0.702541   -8.23086   9.876605 H        1 UNL1     0.0280
     100 H         0.97365   -6.396447   11.349961 H        1 UNL1     0.2922
     101 H         4.380018   -2.587961   1.58428 H        1 UNL1     0.0236
     102 H         3.620462   -4.179354   1.980014 H        1 UNL1     0.0236
     103 H         4.929886   -3.542366   2.926138 H        1 UNL1     0.0236
     104 H         3.119399   -0.210458   2.021876 H        1 UNL1     0.2098
     105 H         -1.303904   -1.053737   0.447507 H        1 UNL1     0.0234
     106 H         -0.26816   -0.236439   1.651814 H        1 UNL1     0.0234
     107 H         0.0   0.0   0.0 H        1 UNL1     0.0234
     108 H         -0.039539   -5.104063   0.038763 H        1 UNL1     0.2098
     109 H         -3.241488   -1.323367   2.815843 H        1 UNL1     0.0234
     110 H         -2.010784   -2.563059   3.217503 H        1 UNL1     0.0234
     111 H         -1.664614   -1.332061   2.054038 H        1 UNL1     0.0234
     112 H         -4.793778   0.905774   -2.124028 H        1 UNL1     0.0342
     113 H         -3.228859   1.244797   -1.302852 H        1 UNL1     0.0342
     114 H         -3.286404   1.004188   -3.051213 H        1 UNL1     0.0342
     115 H         -1.0568   -5.19682   -1.915963 H        1 UNL1     0.0234
     116 H         -2.668356   -5.09265   -1.199847 H        1 UNL1     0.0234
     117 H         -2.268168   -4.358817   -2.766686 H        1 UNL1     0.0234
     118 H         -3.361363   -5.585315   6.142437 H        1 UNL1     0.0309
     119 H         -2.575173   -3.9965   6.398628 H        1 UNL1     0.0309
     120 H         -3.070973   -4.531093   4.807858 H        1 UNL1     0.0309
     121 H         -1.922881   -4.942938   -1.295217 H        1 UNL1     0.0524
     122 H         -3.580775   -5.548055   -1.185319 H        1 UNL1     0.0524
     123 H         -3.221963   -3.869546   -0.70824 H        1 UNL1     0.0524
@<TRIPOS>BOND
     1     1     2    1
     2     1    42    1
     3     2     3    2
     4     3     4    1
     5     4     5    2
     6     5     7    1
     7     6    75    1
     8     6    76    1
     9     6    77    1
    10     7     9   am
    11     9    10    1
    12    10    11    2
    13    10    43    1
    14    11    14    1
    15    11    15    1
    16    12    13   ar
    17    12    27   ar
    18    12    43    1
    19    13    14    1
    20    13    30   ar
    21    14    17    2
    22    15    16    1
    23    16    17    1
    24    16    18    1
    25    16    22    1
    26    18    19    1
    27    19    20    1
    28    20    21    1
    29    21    22    1
    30    23    24    1
    31    23    88    1
    32    23    89    1
    33    24    25    1
    34    24    26    1
    35    24    90    1
    36    25    91    1
    37    25    92    1
    38    25    93    1
    39    26    94    1
    40    26    95    1
    41    26    96    1
    42    27    28   ar
    43    28    29   ar
    44    29    30   ar
    45    29    31    1
    46    30    33    1
    47    31    32    1
    48    32    33    1
    49    32    35    1
    50    34    97    1
    51    34    98    1
    52    34    99    1
    53    35    61    1
    54    36    37    1
    55    36    60    1
    56    37    38    1
    57    38    39    1
    58    39    40    1
    59    40    41    1
    60    41    42    1
    61    45   100    1
    62    47   101    1
    63    47   102    1
    64    47   103    1
    65    48   104    1
    66    49   105    1
    67    49   106    1
    68    49   107    1
    69    50   108    1
    70    51    59    1
    71    52   109    1
    72    52   110    1
    73    52   111    1
    74    53    54    1
    75    54    55    2
    76    54    56    1
    77    56   112    1
    78    56   113    1
    79    56   114    1
    80    57   115    1
    81    57   116    1
    82    57   117    1
    83    58   118    1
    84    58   119    1
    85    58   120    1
    86    59   121    1
    87    59   122    1
    88    59   123    1
    89    60    61    2
    90     1    47    1
    91     1    62    1
    92     2    63    1
    93     3    64    1
    94     4    65    1
    95     5     6    1
    96     7     8    2
    97     9    78    1
    98    15    79    1
    99    18    80    1
   100    18    81    1
   101    19    82    1
   102    19    83    1
   103    20    23    1
   104    21    84    1
   105    21    85    1
   106    22    86    1
   107    22    87    1
   108    27    45    1
   109    28    34    1
   110    32    58    1
   111    33    46    2
   112    36    51    1
   113    36    66    1
   114    37    52    1
   115    37    67    1
   116    38    53    1
   117    38    68    1
   118    42    48    1
   119    42    72    1
   120    43    44    2
   121    60    73    1
   122    61    74    1
   123    39    69    1
   124    39    57    1
   125    40    70    1
   126    40    50    1
   127    41    71    1
   128    41    49    1
