@<TRIPOS>MOLECULE
*****
 123 128 0 0 0
SMALL
GASTEIGER

@<TRIPOS>ATOM
     1 C         2.067271   2.451371   -2.691106 C.3        1 UNL1     0.0009
     2 C         1.408148   3.555261   -4.026777 C.2        1 UNL1     -0.0787
     3 C         0.987848   3.754977   -5.397729 C.2        1 UNL1     -0.0649
     4 C         0.284117   5.135542   -6.079755 C.2        1 UNL1     -0.0542
     5 C         -0.48588   5.633317   -7.159757 C.2        1 UNL1     0.0115
     6 C         -1.079466   5.275199   -8.549983 C.3        1 UNL1     -0.0348
     7 C         -1.202842   7.061714   -7.009301 C.2        1 UNL1     0.2441
     8 O         -0.766243   8.082749   -7.522523 O.2        1 UNL1     -0.2702
     9 N         -2.500382   7.015589   -6.4704 N.am        1 UNL1     -0.2772
     10 C         -2.452294   7.077723   -5.096665 C.2        1 UNL1     0.1049
     11 C         -2.222272   5.93806   -4.470182 C.2        1 UNL1     0.0801
     12 C         -1.445934   8.366112   -3.203354 C.ar        1 UNL1     0.0753
     13 C         -1.033664   7.104671   -2.667249 C.ar        1 UNL1     0.0305
     14 C         -1.523593   5.842671   -3.217136 C.2        1 UNL1     0.0924
     15 N         -2.232326   4.677978   -4.93775 N.pl3        1 UNL1     -0.3170
     16 C         -2.089191   3.791098   -3.813825 C.3        1 UNL1     0.1275
     17 N         -1.328887   4.598247   -2.790023 N.2        1 UNL1     -0.2557
     18 C         -3.481889   3.57162   -3.230795 C.3        1 UNL1     0.0016
     19 C         -4.392742   3.049497   -4.330488 C.3        1 UNL1     0.0026
     20 N         -3.838322   1.805204   -4.84564 N.3        1 UNL1     -0.3018
     21 C         -2.475566   1.902899   -5.372633 C.3        1 UNL1     0.0026
     22 C         -1.576934   2.424803   -4.250149 C.3        1 UNL1     0.0016
     23 C         -4.77195   1.074208   -5.679083 C.3        1 UNL1     0.0012
     24 C         -5.140439   -0.267368   -5.026285 C.3        1 UNL1     -0.0339
     25 C         -5.769214   -0.063376   -3.638089 C.3        1 UNL1     -0.0615
     26 C         -6.056054   -1.05891   -5.943831 C.3        1 UNL1     -0.0615
     27 C         -1.071397   9.564097   -2.599472 C.ar        1 UNL1     0.1347
     28 C         -0.322508   9.625901   -1.437837 C.ar        1 UNL1     0.0342
     29 C         0.113071   8.373381   -0.95552 C.ar        1 UNL1     0.1435
     30 C         -0.22405   7.166923   -1.570361 C.ar        1 UNL1     0.0774
     31 O         0.757912   8.258648   0.226014 O.3        1 UNL1     -0.4436
     32 C         0.60851   6.877542   0.58809 C.3        1 UNL1     0.3143
     33 C         0.356285   6.150793   -0.717449 C.2        1 UNL1     0.2504
     34 C         -0.096331   10.85269   -0.59883 C.3        1 UNL1     -0.0327
     35 O         1.876949   6.426135   1.078544 O.2        1 UNL1     -0.4528
     36 C         1.104761   3.716248   3.621834 C.3        1 UNL1     0.0854
     37 C         0.290137   2.378551   3.436156 C.3        1 UNL1     0.0236
     38 C         1.076212   1.044898   3.854725 C.3        1 UNL1     0.1131
     39 C         2.528006   0.778042   3.286084 C.3        1 UNL1     0.0200
     40 C         2.871095   1.061841   1.678544 C.3        1 UNL1     0.0661
     41 C         1.964362   0.507956   0.356176 C.3        1 UNL1     0.0091
     42 C         1.674667   1.26579   -1.289171 C.3        1 UNL1     0.0661
     43 C         -2.359972   8.354148   -4.372392 C.2        1 UNL1     0.2131
     44 O         -3.078916   9.289428   -4.674233 O.2        1 UNL1     -0.2851
     45 O         -1.476509   10.748893   -3.210683 O.3        1 UNL1     -0.5056
     46 O         0.600076   4.998455   -0.997693 O.2        1 UNL1     -0.2836
     47 C         3.586332   2.205218   -2.895666 C.3        1 UNL1     -0.0566
     48 O         1.965169   0.020636   -2.040381 O.3        1 UNL1     -0.3909
     49 C         0.625489   0.01259   0.855701 C.3        1 UNL1     -0.0577
     50 O         3.246442   2.409442   1.476533 O.3        1 UNL1     -0.3910
     51 O         2.464916   3.567179   3.961228 O.3        1 UNL1     -0.3753
     52 C         -0.642847   2.434722   2.182626 C.3        1 UNL1     -0.0564
     53 O         0.186651   -0.154467   4.004826 O.3        1 UNL1     -0.4608
     54 C         0.590277   -1.460624   3.910116 C.2        1 UNL1     0.3042
     55 O         1.383423   -2.052145   4.641457 O.2        1 UNL1     -0.2512
     56 C         -0.08633   -2.220531   2.80492 C.3        1 UNL1     0.0332
     57 C         3.576182   1.300474   4.37538 C.3        1 UNL1     -0.0567
     58 C         -0.664348   6.789669   1.461955 C.3        1 UNL1     0.0210
     59 C         3.211913   2.722963   3.086494 C.3        1 UNL1     0.0372
     60 C         1.051   4.650999   2.464894 C.2        1 UNL1     -0.0208
     61 C         2.021324   5.344642   1.868173 C.2        1 UNL1     0.0882
     62 H         1.977742   3.285148   -1.984345 H        1 UNL1     0.0365
     63 H         1.366259   4.510468   -3.49924 H        1 UNL1     0.0576
     64 H         0.941435   2.92697   -6.108614 H        1 UNL1     0.0615
     65 H         0.45352   5.912303   -5.329137 H        1 UNL1     0.0622
     66 H         0.601095   4.233356   4.450668 H        1 UNL1     0.0645
     67 H         -0.488718   2.428409   4.216834 H        1 UNL1     0.0362
     68 H         1.215248   1.242681   4.928537 H        1 UNL1     0.0741
     69 H         2.756643   -0.273727   3.395241 H        1 UNL1     0.0359
     70 H         3.81627   0.494025   1.582161 H        1 UNL1     0.0600
     71 H         2.486191   -0.447213   0.150493 H        1 UNL1     0.0348
     72 H         2.570821   1.756728   -0.882719 H        1 UNL1     0.0602
     73 H         0.036923   4.822559   2.201334 H        1 UNL1     0.0628
     74 H         3.086748   5.187215   2.039421 H        1 UNL1     0.1022
     75 H         -0.398309   4.582287   -9.100377 H        1 UNL1     0.0279
     76 H         -2.01967   4.728313   -8.549773 H        1 UNL1     0.0279
     77 H         -1.111179   6.136324   -9.233473 H        1 UNL1     0.0279
     78 H         -2.944071   6.134688   -6.721857 H        1 UNL1     0.1553
     79 H         -2.681647   4.404567   -5.792321 H        1 UNL1     0.1484
     80 H         -3.412841   2.862109   -2.397373 H        1 UNL1     0.0317
     81 H         -3.884169   4.502667   -2.817306 H        1 UNL1     0.0317
     82 H         -4.523692   3.787672   -5.135386 H        1 UNL1     0.0428
     83 H         -5.380841   2.901667   -3.893616 H        1 UNL1     0.0428
     84 H         -2.053787   0.940638   -5.679174 H        1 UNL1     0.0428
     85 H         -2.432585   2.515455   -6.28381 H        1 UNL1     0.0428
     86 H         -0.573431   2.357179   -4.627505 H        1 UNL1     0.0317
     87 H         -1.579974   1.720257   -3.409493 H        1 UNL1     0.0317
     88 H         -5.684387   1.676488   -5.779139 H        1 UNL1     0.0429
     89 H         -4.372008   0.925852   -6.690425 H        1 UNL1     0.0429
     90 H         -4.233403   -0.872936   -4.913211 H        1 UNL1     0.0308
     91 H         -6.375387   -0.925919   -3.345384 H        1 UNL1     0.0233
     92 H         -4.995992   0.103851   -2.884583 H        1 UNL1     0.0233
     93 H         -6.426175   0.814084   -3.60204 H        1 UNL1     0.0233
     94 H         -5.67908   -2.080314   -6.064078 H        1 UNL1     0.0233
     95 H         -7.058477   -1.118339   -5.510728 H        1 UNL1     0.0233
     96 H         -6.125647   -0.597561   -6.932913 H        1 UNL1     0.0233
     97 H         -1.011763   11.416624   -0.44654 H        1 UNL1     0.0280
     98 H         0.274673   10.605321   0.404375 H        1 UNL1     0.0280
     99 H         0.635774   11.509945   -1.095956 H        1 UNL1     0.0280
     100 H         -1.875837   10.636995   -4.055455 H        1 UNL1     0.2922
     101 H         4.145125   2.651518   -2.073338 H        1 UNL1     0.0236
     102 H         3.948256   2.54215   -3.866475 H        1 UNL1     0.0236
     103 H         3.840922   1.132873   -2.857559 H        1 UNL1     0.0236
     104 H         1.413302   -0.689743   -1.658578 H        1 UNL1     0.2098
     105 H         0.644288   -0.992756   1.268904 H        1 UNL1     0.0234
     106 H         0.114232   0.691842   1.537728 H        1 UNL1     0.0234
     107 H         -0.0   0.0   0.0 H        1 UNL1     0.0234
     108 H         3.335707   2.820936   2.357711 H        1 UNL1     0.2098
     109 H         -0.198684   3.010954   1.358983 H        1 UNL1     0.0234
     110 H         -0.93648   1.443786   1.819901 H        1 UNL1     0.0234
     111 H         -1.597019   2.928448   2.41008 H        1 UNL1     0.0234
     112 H         -0.610616   -1.525441   2.142108 H        1 UNL1     0.0342
     113 H         0.613203   -2.840599   2.24634 H        1 UNL1     0.0342
     114 H         -0.835385   -2.886476   3.255031 H        1 UNL1     0.0342
     115 H         4.573711   1.454464   3.941315 H        1 UNL1     0.0234
     116 H         3.282699   2.232383   4.862682 H        1 UNL1     0.0234
     117 H         3.798418   0.559762   5.162716 H        1 UNL1     0.0234
     118 H         -1.007494   5.748239   1.591113 H        1 UNL1     0.0309
     119 H         -0.541948   7.251193   2.446951 H        1 UNL1     0.0309
     120 H         -1.526077   7.284116   1.000382 H        1 UNL1     0.0309
     121 H         3.169847   1.711305   3.489152 H        1 UNL1     0.0524
     122 H         2.786693   2.693411   2.069463 H        1 UNL1     0.0524
     123 H         4.242793   3.060536   3.027969 H        1 UNL1     0.0524
@<TRIPOS>BOND
     1     1     2    1
     2     1    42    1
     3     2     3    2
     4     3     4    1
     5     4     5    2
     6     5     7    1
     7     6    75    1
     8     6    76    1
     9     6    77    1
    10     7     9   am
    11     9    10    1
    12    10    11    2
    13    10    43    1
    14    11    14    1
    15    11    15    1
    16    12    13   ar
    17    12    27   ar
    18    12    43    1
    19    13    14    1
    20    13    30   ar
    21    14    17    2
    22    15    16    1
    23    16    17    1
    24    16    18    1
    25    16    22    1
    26    18    19    1
    27    19    20    1
    28    20    21    1
    29    21    22    1
    30    23    24    1
    31    23    88    1
    32    23    89    1
    33    24    25    1
    34    24    26    1
    35    24    90    1
    36    25    91    1
    37    25    92    1
    38    25    93    1
    39    26    94    1
    40    26    95    1
    41    26    96    1
    42    27    28   ar
    43    28    29   ar
    44    29    30   ar
    45    29    31    1
    46    30    33    1
    47    31    32    1
    48    32    33    1
    49    32    35    1
    50    34    97    1
    51    34    98    1
    52    34    99    1
    53    35    61    1
    54    36    37    1
    55    36    60    1
    56    37    38    1
    57    38    39    1
    58    39    40    1
    59    40    41    1
    60    41    42    1
    61    45   100    1
    62    47   101    1
    63    47   102    1
    64    47   103    1
    65    48   104    1
    66    49   105    1
    67    49   106    1
    68    49   107    1
    69    50   108    1
    70    51    59    1
    71    52   109    1
    72    52   110    1
    73    52   111    1
    74    53    54    1
    75    54    55    2
    76    54    56    1
    77    56   112    1
    78    56   113    1
    79    56   114    1
    80    57   115    1
    81    57   116    1
    82    57   117    1
    83    58   118    1
    84    58   119    1
    85    58   120    1
    86    59   121    1
    87    59   122    1
    88    59   123    1
    89    60    61    2
    90     1    47    1
    91     1    62    1
    92     2    63    1
    93     3    64    1
    94     4    65    1
    95     5     6    1
    96     7     8    2
    97     9    78    1
    98    15    79    1
    99    18    80    1
   100    18    81    1
   101    19    82    1
   102    19    83    1
   103    20    23    1
   104    21    84    1
   105    21    85    1
   106    22    86    1
   107    22    87    1
   108    27    45    1
   109    28    34    1
   110    32    58    1
   111    33    46    2
   112    36    51    1
   113    36    66    1
   114    37    52    1
   115    37    67    1
   116    38    53    1
   117    38    68    1
   118    42    48    1
   119    42    72    1
   120    43    44    2
   121    60    73    1
   122    61    74    1
   123    39    69    1
   124    39    57    1
   125    40    70    1
   126    40    50    1
   127    41    71    1
   128    41    49    1
