@<TRIPOS>MOLECULE
*****
 123 128 0 0 0
SMALL
GASTEIGER

@<TRIPOS>ATOM
     1 C         4.63697   2.587286   1.347669 C.3        1 UNL1     0.0009
     2 C         5.975197   3.735505   0.775149 C.2        1 UNL1     -0.0787
     3 C         7.322197   3.952064   0.29065 C.2        1 UNL1     -0.0649
     4 C         8.019045   5.403594   -0.232628 C.2        1 UNL1     -0.0542
     5 C         9.06632   5.981294   -0.99194 C.2        1 UNL1     0.0115
     6 C         10.39439   5.675319   -1.737548 C.3        1 UNL1     -0.0348
     7 C         8.934907   7.511745   -1.458245 C.2        1 UNL1     0.2441
     8 O         9.524311   8.429233   -0.903857 O.2        1 UNL1     -0.2702
     9 N         8.307222   7.696543   -2.702437 N.am        1 UNL1     -0.2772
     10 C         6.944428   7.798835   -2.542281 C.2        1 UNL1     0.1049
     11 C         6.282004   6.659941   -2.450967 C.2        1 UNL1     0.0801
     12 C         5.187046   8.972818   -1.204108 C.ar        1 UNL1     0.0753
     13 C         4.621368   7.680981   -0.959624 C.ar        1 UNL1     0.0305
     14 C         5.076406   6.496765   -1.684623 C.2        1 UNL1     0.0924
     15 N         6.687814   5.402466   -2.697146 N.pl3        1 UNL1     -0.3170
     16 C         5.535665   4.544651   -2.613721 C.3        1 UNL1     0.1275
     17 N         4.605314   5.253229   -1.659737 N.2        1 UNL1     -0.2557
     18 C         4.849335   4.575568   -3.975961 C.3        1 UNL1     0.0016
     19 C         5.858502   4.169831   -5.038292 C.3        1 UNL1     0.0026
     20 N         6.350963   2.834391   -4.729892 N.3        1 UNL1     -0.3018
     21 C         6.97366   2.690256   -3.412379 C.3        1 UNL1     0.0026
     22 C         5.940937   3.098575   -2.360404 C.3        1 UNL1     0.0016
     23 C         7.083387   2.235871   -5.82806 C.3        1 UNL1     0.0012
     24 C         6.130569   1.878599   -6.979689 C.3        1 UNL1     -0.0339
     25 C         6.383878   2.760627   -8.21335 C.3        1 UNL1     -0.0615
     26 C         6.248967   0.401888   -7.314482 C.3        1 UNL1     -0.0615
     27 C         4.667312   10.114607   -0.598871 C.ar        1 UNL1     0.1347
     28 C         3.56365   10.095009   0.235155 C.ar        1 UNL1     0.0342
     29 C         3.053586   8.806263   0.499978 C.ar        1 UNL1     0.1435
     30 C         3.586392   7.649641   -0.070604 C.ar        1 UNL1     0.0774
     31 O         1.91467   8.63023   1.204883 O.3        1 UNL1     -0.4436
     32 C         1.478481   7.305596   0.864355 C.3        1 UNL1     0.3143
     33 C         2.728033   6.58361   0.40222 C.2        1 UNL1     0.2504
     34 C         2.800845   11.2977   0.716571 C.3        1 UNL1     -0.0327
     35 O         1.054893   6.671554   2.077539 O.2        1 UNL1     -0.4528
     36 C         -1.660164   4.215591   1.075142 C.3        1 UNL1     0.0854
     37 C         -1.59379   3.022517   0.04573 C.3        1 UNL1     0.0236
     38 C         -2.020259   1.594477   0.637819 C.3        1 UNL1     0.1131
     39 C         -1.367189   1.074914   1.981629 C.3        1 UNL1     0.0200
     40 C         0.271599   1.241763   2.244254 C.3        1 UNL1     0.0661
     41 C         1.501457   0.796119   1.164226 C.3        1 UNL1     0.0091
     42 C         3.157149   1.531994   0.876872 C.3        1 UNL1     0.0661
     43 C         6.289177   9.068167   -2.193287 C.2        1 UNL1     0.2131
     44 O         6.585098   10.096627   -2.774182 O.2        1 UNL1     -0.2851
     45 O         5.304709   11.327035   -0.854176 O.3        1 UNL1     -0.5056
     46 O         2.969554   5.397734   0.437145 O.2        1 UNL1     -0.2836
     47 C         4.932776   2.090139   2.788268 C.3        1 UNL1     -0.0566
     48 O         3.86682   0.230251   0.907675 O.3        1 UNL1     -0.3909
     49 C         0.888994   0.543275   -0.195353 C.3        1 UNL1     -0.0577
     50 O         0.562097   2.502289   2.813822 O.3        1 UNL1     -0.3910
     51 O         -1.912692   3.859371   2.415578 O.3        1 UNL1     -0.3753
     52 C         -0.405535   3.185127   -0.957544 C.3        1 UNL1     -0.0564
     53 O         -2.28709   0.561935   -0.418109 O.3        1 UNL1     -0.4608
     54 C         -2.29069   -0.794212   -0.221177 C.2        1 UNL1     0.3042
     55 O         -1.32305   -1.553962   -0.238244 O.2        1 UNL1     -0.2512
     56 C         -3.647808   -1.351365   0.102128 C.3        1 UNL1     0.0332
     57 C         -2.356618   1.458243   3.178401 C.3        1 UNL1     -0.0567
     58 C         0.516697   7.457124   -0.337119 C.3        1 UNL1     0.0210
     59 C         -3.215607   4.195904   2.889943 C.3        1 UNL1     0.0372
     60 C         -0.466762   5.104894   1.084863 C.2        1 UNL1     -0.0208
     61 C         0.226791   5.609754   2.106061 C.2        1 UNL1     0.0882
     62 H         3.965885   3.449118   1.445653 H        1 UNL1     0.0365
     63 H         5.491696   4.702945   0.925996 H        1 UNL1     0.0576
     64 H         7.988397   3.117893   0.059469 H        1 UNL1     0.0615
     65 H         7.319216   6.168637   0.114407 H        1 UNL1     0.0622
     66 H         -2.496081   4.8369   0.72405 H        1 UNL1     0.0645
     67 H         -2.422528   3.226162   -0.654471 H        1 UNL1     0.0362
     68 H         -3.071562   1.80506   0.886697 H        1 UNL1     0.0741
     69 H         -1.510015   0.004515   2.046868 H        1 UNL1     0.0359
     70 H         0.405295   0.524666   3.076695 H        1 UNL1     0.0600
     71 H         1.696934   -0.237928   1.509905 H        1 UNL1     0.0348
     72 H         2.836362   1.884722   1.867829 H        1 UNL1     0.0602
     73 H         -0.265152   5.42968   0.09435 H        1 UNL1     0.0628
     74 H         0.121342   5.287267   3.142458 H        1 UNL1     0.1022
     75 H         10.600379   4.577775   -1.737017 H        1 UNL1     0.0279
     76 H         10.422918   5.91851   -2.797318 H        1 UNL1     0.0279
     77 H         11.277843   6.061964   -1.208664 H        1 UNL1     0.0279
     78 H         8.485994   6.891193   -3.2987 H        1 UNL1     0.1553
     79 H         7.495906   5.175591   -3.247099 H        1 UNL1     0.1484
     80 H         3.990009   3.894368   -3.958891 H        1 UNL1     0.0317
     81 H         4.453779   5.573768   -4.192254 H        1 UNL1     0.0317
     82 H         6.686535   4.890381   -5.109578 H        1 UNL1     0.0428
     83 H         5.348792   4.200369   -6.001783 H        1 UNL1     0.0428
     84 H         7.262493   1.661908   -3.173868 H        1 UNL1     0.0428
     85 H         7.913537   3.254862   -3.340485 H        1 UNL1     0.0428
     86 H         6.382219   2.855203   -1.411706 H        1 UNL1     0.0317
     87 H         5.069722   2.434258   -2.412958 H        1 UNL1     0.0317
     88 H         7.812623   2.970913   -6.193058 H        1 UNL1     0.0429
     89 H         7.65109   1.356867   -5.49664 H        1 UNL1     0.0429
     90 H         5.095854   2.028846   -6.64953 H        1 UNL1     0.0308
     91 H         7.452355   2.834197   -8.437059 H        1 UNL1     0.0233
     92 H         5.861215   2.362953   -9.086441 H        1 UNL1     0.0233
     93 H         6.016131   3.784847   -8.077074 H        1 UNL1     0.0233
     94 H         5.897786   0.216716   -8.335374 H        1 UNL1     0.0233
     95 H         7.29494   0.08813   -7.255672 H        1 UNL1     0.0233
     96 H         5.657401   -0.211378   -6.628973 H        1 UNL1     0.0233
     97 H         1.754988   11.259673   0.426801 H        1 UNL1     0.0280
     98 H         2.806574   11.38043   1.811276 H        1 UNL1     0.0280
     99 H         3.244822   12.211666   0.2892 H        1 UNL1     0.0280
     100 H         6.239206   11.30877   -0.744615 H        1 UNL1     0.2922
     101 H         4.014379   1.724025   3.246704 H        1 UNL1     0.0236
     102 H         5.428578   2.837846   3.40641 H        1 UNL1     0.0236
     103 H         5.614103   1.222997   2.795395 H        1 UNL1     0.0236
     104 H         4.116337   0.052228   1.835586 H        1 UNL1     0.2098
     105 H         0.615757   1.443942   -0.739367 H        1 UNL1     0.0234
     106 H         1.463293   -0.125578   -0.836245 H        1 UNL1     0.0234
     107 H         0.0   -0.0   0.0 H        1 UNL1     0.0234
     108 H         0.46847   3.168869   2.106239 H        1 UNL1     0.2098
     109 H         -0.489773   4.102361   -1.556959 H        1 UNL1     0.0234
     110 H         0.575525   3.153884   -0.471447 H        1 UNL1     0.0234
     111 H         -0.37066   2.35954   -1.680825 H        1 UNL1     0.0234
     112 H         -3.817236   -2.27144   -0.465411 H        1 UNL1     0.0342
     113 H         -3.77687   -1.521601   1.169933 H        1 UNL1     0.0342
     114 H         -4.403412   -0.618083   -0.211759 H        1 UNL1     0.0342
     115 H         -3.381232   1.109862   2.988701 H        1 UNL1     0.0234
     116 H         -2.050923   1.065579   4.150211 H        1 UNL1     0.0234
     117 H         -2.517369   2.544822   3.28539 H        1 UNL1     0.0234
     118 H         -0.528896   7.23344   -0.061971 H        1 UNL1     0.0309
     119 H         0.560979   8.447787   -0.800614 H        1 UNL1     0.0309
     120 H         0.726663   6.738509   -1.136878 H        1 UNL1     0.0309
     121 H         -3.152535   4.313546   3.971395 H        1 UNL1     0.0524
     122 H         -3.579222   5.149788   2.472898 H        1 UNL1     0.0524
     123 H         -3.921706   3.409427   2.639001 H        1 UNL1     0.0524
@<TRIPOS>BOND
     1     1     2    1
     2     1    42    1
     3     2     3    2
     4     3     4    1
     5     4     5    2
     6     5     7    1
     7     6    75    1
     8     6    76    1
     9     6    77    1
    10     7     9   am
    11     9    10    1
    12    10    11    2
    13    10    43    1
    14    11    14    1
    15    11    15    1
    16    12    13   ar
    17    12    27   ar
    18    12    43    1
    19    13    14    1
    20    13    30   ar
    21    14    17    2
    22    15    16    1
    23    16    17    1
    24    16    18    1
    25    16    22    1
    26    18    19    1
    27    19    20    1
    28    20    21    1
    29    21    22    1
    30    23    24    1
    31    23    88    1
    32    23    89    1
    33    24    25    1
    34    24    26    1
    35    24    90    1
    36    25    91    1
    37    25    92    1
    38    25    93    1
    39    26    94    1
    40    26    95    1
    41    26    96    1
    42    27    28   ar
    43    28    29   ar
    44    29    30   ar
    45    29    31    1
    46    30    33    1
    47    31    32    1
    48    32    33    1
    49    32    35    1
    50    34    97    1
    51    34    98    1
    52    34    99    1
    53    35    61    1
    54    36    37    1
    55    36    60    1
    56    37    38    1
    57    38    39    1
    58    39    40    1
    59    40    41    1
    60    41    42    1
    61    45   100    1
    62    47   101    1
    63    47   102    1
    64    47   103    1
    65    48   104    1
    66    49   105    1
    67    49   106    1
    68    49   107    1
    69    50   108    1
    70    51    59    1
    71    52   109    1
    72    52   110    1
    73    52   111    1
    74    53    54    1
    75    54    55    2
    76    54    56    1
    77    56   112    1
    78    56   113    1
    79    56   114    1
    80    57   115    1
    81    57   116    1
    82    57   117    1
    83    58   118    1
    84    58   119    1
    85    58   120    1
    86    59   121    1
    87    59   122    1
    88    59   123    1
    89    60    61    2
    90     1    47    1
    91     1    62    1
    92     2    63    1
    93     3    64    1
    94     4    65    1
    95     5     6    1
    96     7     8    2
    97     9    78    1
    98    15    79    1
    99    18    80    1
   100    18    81    1
   101    19    82    1
   102    19    83    1
   103    20    23    1
   104    21    84    1
   105    21    85    1
   106    22    86    1
   107    22    87    1
   108    27    45    1
   109    28    34    1
   110    32    58    1
   111    33    46    2
   112    36    51    1
   113    36    66    1
   114    37    52    1
   115    37    67    1
   116    38    53    1
   117    38    68    1
   118    42    48    1
   119    42    72    1
   120    43    44    2
   121    60    73    1
   122    61    74    1
   123    39    69    1
   124    39    57    1
   125    40    70    1
   126    40    50    1
   127    41    71    1
   128    41    49    1
