@<TRIPOS>MOLECULE
*****
 123 128 0 0 0
SMALL
GASTEIGER

@<TRIPOS>ATOM
     1 C         4.164985   -1.601486   -0.406057 C.3        1 UNL1     0.0009
     2 C         4.7772   -3.084035   -1.335722 C.2        1 UNL1     -0.0787
     3 C         5.345016   -4.415793   -1.342833 C.2        1 UNL1     -0.0649
     4 C         5.603572   -5.429675   -2.673829 C.2        1 UNL1     -0.0542
     5 C         5.814158   -6.767104   -3.090982 C.2        1 UNL1     0.0115
     6 C         6.112839   -8.207198   -2.590739 C.3        1 UNL1     -0.0348
     7 C         5.572539   -7.14749   -4.631733 C.2        1 UNL1     0.2441
     8 O         6.486182   -7.297329   -5.431315 O.2        1 UNL1     -0.2702
     9 N         4.262109   -7.55239   -4.93992 N.am        1 UNL1     -0.2772
     10 C         3.48458   -6.462189   -5.256514 C.2        1 UNL1     0.1049
     11 C         2.969851   -5.798672   -4.23719 C.2        1 UNL1     0.0801
     12 C         3.44281   -4.399025   -6.670354 C.ar        1 UNL1     0.0753
     13 C         3.086311   -3.686208   -5.481485 C.ar        1 UNL1     0.0305
     14 C         2.710115   -4.384594   -4.25438 C.2        1 UNL1     0.0924
     15 N         2.90397   -6.129244   -2.936071 N.pl3        1 UNL1     -0.3170
     16 C         2.091856   -5.143868   -2.272929 C.3        1 UNL1     0.1275
     17 N         2.261089   -3.894444   -3.102402 N.2        1 UNL1     -0.2557
     18 C         0.636543   -5.569895   -2.441057 C.3        1 UNL1     0.0016
     19 C         0.47751   -6.981811   -1.899954 C.3        1 UNL1     0.0026
     20 N         0.867606   -6.991721   -0.49683 N.3        1 UNL1     -0.3018
     21 C         2.233657   -6.537789   -0.228097 C.3        1 UNL1     0.0026
     22 C         2.369698   -5.116003   -0.77574 C.3        1 UNL1     0.0016
     23 C         0.474049   -8.206183   0.189347 C.3        1 UNL1     0.0012
     24 C         -1.051821   -8.25485   0.365725 C.3        1 UNL1     -0.0339
     25 C         -1.534191   -9.675872   0.7005 C.3        1 UNL1     -0.0615
     26 C         -1.486157   -7.253715   1.422068 C.3        1 UNL1     -0.0615
     27 C         3.682587   -3.730192   -7.868389 C.ar        1 UNL1     0.1347
     28 C         3.558262   -2.359546   -8.009532 C.ar        1 UNL1     0.0342
     29 C         3.254155   -1.673777   -6.814374 C.ar        1 UNL1     0.1435
     30 C         3.046744   -2.327105   -5.598905 C.ar        1 UNL1     0.0774
     31 O         2.992072   -0.348524   -6.809403 O.3        1 UNL1     -0.4436
     32 C         2.287544   -0.122785   -5.579137 C.3        1 UNL1     0.3143
     33 C         2.691053   -1.270144   -4.675279 C.2        1 UNL1     0.2504
     34 C         3.552547   -1.603937   -9.309195 C.3        1 UNL1     -0.0327
     35 O         2.819331   1.073743   -4.997092 O.2        1 UNL1     -0.4528
     36 C         -0.02986   2.629262   -3.029719 C.3        1 UNL1     0.0854
     37 C         -0.889973   2.008676   -1.862415 C.3        1 UNL1     0.0236
     38 C         -0.914887   2.869801   -0.509793 C.3        1 UNL1     0.1131
     39 C         0.444405   3.35874   0.134825 C.3        1 UNL1     0.0200
     40 C         1.749965   2.325701   0.238654 C.3        1 UNL1     0.0661
     41 C         1.720023   0.745263   0.854226 C.3        1 UNL1     0.0091
     42 C         2.702585   -0.732162   0.388187 C.3        1 UNL1     0.0661
     43 C         3.461355   -5.881571   -6.607328 C.2        1 UNL1     0.2131
     44 O         3.358212   -6.598198   -7.58638 O.2        1 UNL1     -0.2851
     45 O         4.069108   -4.494251   -8.967595 O.3        1 UNL1     -0.5056
     46 O         2.731294   -1.298189   -3.465549 O.2        1 UNL1     -0.2836
     47 C         5.360207   -0.789166   0.161008 C.3        1 UNL1     -0.0566
     48 O         3.037391   -1.091791   1.787361 O.3        1 UNL1     -0.3909
     49 C         0.28086   0.29696   0.978035 C.3        1 UNL1     -0.0577
     50 O         2.517967   2.367894   -0.947144 O.3        1 UNL1     -0.3910
     51 O         0.74377   3.758306   -2.6918 O.3        1 UNL1     -0.3753
     52 C         -0.816114   0.446821   -1.852215 C.3        1 UNL1     -0.0564
     53 O         -1.996682   2.457099   0.445049 O.3        1 UNL1     -0.4608
     54 C         -2.006603   2.708388   1.792151 C.2        1 UNL1     0.3042
     55 O         -1.070763   3.106749   2.484503 O.2        1 UNL1     -0.2512
     56 C         -3.351829   2.510711   2.430904 C.3        1 UNL1     0.0332
     57 C         0.712699   4.849681   -0.378292 C.3        1 UNL1     -0.0567
     58 C         0.781835   -0.251964   -5.907291 C.3        1 UNL1     0.0210
     59 C         1.135703   4.569356   -3.79835 C.3        1 UNL1     0.0372
     60 C         0.882128   1.67363   -3.715434 C.2        1 UNL1     -0.0208
     61 C         2.157554   1.807313   -4.081716 C.2        1 UNL1     0.0882
     62 H         3.89631   -1.136664   -1.362334 H        1 UNL1     0.0365
     63 H         4.685415   -2.731076   -2.365025 H        1 UNL1     0.0576
     64 H         5.515888   -4.970165   -0.417316 H        1 UNL1     0.0615
     65 H         5.48697   -4.76511   -3.534201 H        1 UNL1     0.0622
     66 H         -0.768311   2.935163   -3.784146 H        1 UNL1     0.0645
     67 H         -1.931944   2.116646   -2.210553 H        1 UNL1     0.0362
     68 H         -1.406273   3.781909   -0.881439 H        1 UNL1     0.0741
     69 H         0.265127   3.619031   1.169483 H        1 UNL1     0.0359
     70 H         2.362764   2.867222   0.984505 H        1 UNL1     0.0600
     71 H         1.976873   0.945314   1.912983 H        1 UNL1     0.0348
     72 H         3.261205   0.135657   0.008516 H        1 UNL1     0.0602
     73 H         0.32805   0.821951   -4.023474 H        1 UNL1     0.0628
     74 H         2.809729   2.619798   -3.759578 H        1 UNL1     0.1022
     75 H         6.154305   -8.233952   -1.475123 H        1 UNL1     0.0279
     76 H         5.364491   -8.963836   -2.815557 H        1 UNL1     0.0279
     77 H         7.125262   -8.547255   -2.853533 H        1 UNL1     0.0279
     78 H         3.843293   -8.002073   -4.128467 H        1 UNL1     0.1553
     79 H         3.00988   -7.06644   -2.593462 H        1 UNL1     0.1484
     80 H         -0.007487   -4.8612   -1.906508 H        1 UNL1     0.0317
     81 H         0.337128   -5.532857   -3.493972 H        1 UNL1     0.0317
     82 H         1.065674   -7.708557   -2.47945 H        1 UNL1     0.0428
     83 H         -0.566915   -7.26636   -2.031323 H        1 UNL1     0.0428
     84 H         2.474589   -6.478902   0.837875 H        1 UNL1     0.0428
     85 H         2.982391   -7.232682   -0.632865 H        1 UNL1     0.0428
     86 H         3.331388   -4.769352   -0.44563 H        1 UNL1     0.0317
     87 H         1.668626   -4.447572   -0.26116 H        1 UNL1     0.0317
     88 H         0.782165   -9.061421   -0.426223 H        1 UNL1     0.0429
     89 H         0.987535   -8.303096   1.1546 H        1 UNL1     0.0429
     90 H         -1.531573   -7.933793   -0.566462 H        1 UNL1     0.0308
     91 H         -0.921029   -10.129557   1.484913 H        1 UNL1     0.0233
     92 H         -2.577883   -9.663523   1.023242 H        1 UNL1     0.0233
     93 H         -1.489952   -10.346871   -0.165894 H        1 UNL1     0.0233
     94 H         -2.463223   -7.534756   1.829738 H        1 UNL1     0.0233
     95 H         -0.767142   -7.244323   2.246017 H        1 UNL1     0.0233
     96 H         -1.561818   -6.244332   1.008076 H        1 UNL1     0.0233
     97 H         4.531406   -1.59441   -9.779275 H        1 UNL1     0.0280
     98 H         2.870399   -2.050395   -10.044454 H        1 UNL1     0.0280
     99 H         3.245953   -0.560702   -9.128209 H        1 UNL1     0.0280
     100 H         3.402023   -5.069704   -9.298464 H        1 UNL1     0.2922
     101 H         4.988615   0.055246   0.741133 H        1 UNL1     0.0236
     102 H         6.06936   -0.478353   -0.605464 H        1 UNL1     0.0236
     103 H         5.959087   -1.377888   0.87581 H        1 UNL1     0.0236
     104 H         3.864098   -0.62641   2.021769 H        1 UNL1     0.2098
     105 H         0.130371   -0.552351   1.639725 H        1 UNL1     0.0234
     106 H         -0.424817   1.092263   1.2177 H        1 UNL1     0.0234
     107 H         -0.0   0.0   0.0 H        1 UNL1     0.0234
     108 H         3.069267   1.561958   -0.964544 H        1 UNL1     0.2098
     109 H         0.212286   0.079815   -1.728074 H        1 UNL1     0.0234
     110 H         -1.46204   -0.009661   -1.094489 H        1 UNL1     0.0234
     111 H         -1.172312   0.018611   -2.798632 H        1 UNL1     0.0234
     112 H         -3.23408   2.022317   3.40299 H        1 UNL1     0.0342
     113 H         -3.900721   3.446237   2.527615 H        1 UNL1     0.0342
     114 H         -3.942162   1.843347   1.788022 H        1 UNL1     0.0342
     115 H         -0.152446   5.503853   -0.202877 H        1 UNL1     0.0234
     116 H         1.582629   5.32636   0.07783 H        1 UNL1     0.0234
     117 H         0.818387   4.925419   -1.47421 H        1 UNL1     0.0234
     118 H         0.219442   -0.736371   -5.089936 H        1 UNL1     0.0309
     119 H         0.310653   0.706474   -6.147263 H        1 UNL1     0.0309
     120 H         0.5933   -0.905904   -6.765734 H        1 UNL1     0.0309
     121 H         2.049777   5.091524   -3.516986 H        1 UNL1     0.0524
     122 H         1.358527   3.971014   -4.697447 H        1 UNL1     0.0524
     123 H         0.353355   5.284642   -4.035818 H        1 UNL1     0.0524
@<TRIPOS>BOND
     1     1     2    1
     2     1    42    1
     3     2     3    2
     4     3     4    1
     5     4     5    2
     6     5     7    1
     7     6    75    1
     8     6    76    1
     9     6    77    1
    10     7     9   am
    11     9    10    1
    12    10    11    2
    13    10    43    1
    14    11    14    1
    15    11    15    1
    16    12    13   ar
    17    12    27   ar
    18    12    43    1
    19    13    14    1
    20    13    30   ar
    21    14    17    2
    22    15    16    1
    23    16    17    1
    24    16    18    1
    25    16    22    1
    26    18    19    1
    27    19    20    1
    28    20    21    1
    29    21    22    1
    30    23    24    1
    31    23    88    1
    32    23    89    1
    33    24    25    1
    34    24    26    1
    35    24    90    1
    36    25    91    1
    37    25    92    1
    38    25    93    1
    39    26    94    1
    40    26    95    1
    41    26    96    1
    42    27    28   ar
    43    28    29   ar
    44    29    30   ar
    45    29    31    1
    46    30    33    1
    47    31    32    1
    48    32    33    1
    49    32    35    1
    50    34    97    1
    51    34    98    1
    52    34    99    1
    53    35    61    1
    54    36    37    1
    55    36    60    1
    56    37    38    1
    57    38    39    1
    58    39    40    1
    59    40    41    1
    60    41    42    1
    61    45   100    1
    62    47   101    1
    63    47   102    1
    64    47   103    1
    65    48   104    1
    66    49   105    1
    67    49   106    1
    68    49   107    1
    69    50   108    1
    70    51    59    1
    71    52   109    1
    72    52   110    1
    73    52   111    1
    74    53    54    1
    75    54    55    2
    76    54    56    1
    77    56   112    1
    78    56   113    1
    79    56   114    1
    80    57   115    1
    81    57   116    1
    82    57   117    1
    83    58   118    1
    84    58   119    1
    85    58   120    1
    86    59   121    1
    87    59   122    1
    88    59   123    1
    89    60    61    2
    90     1    47    1
    91     1    62    1
    92     2    63    1
    93     3    64    1
    94     4    65    1
    95     5     6    1
    96     7     8    2
    97     9    78    1
    98    15    79    1
    99    18    80    1
   100    18    81    1
   101    19    82    1
   102    19    83    1
   103    20    23    1
   104    21    84    1
   105    21    85    1
   106    22    86    1
   107    22    87    1
   108    27    45    1
   109    28    34    1
   110    32    58    1
   111    33    46    2
   112    36    51    1
   113    36    66    1
   114    37    52    1
   115    37    67    1
   116    38    53    1
   117    38    68    1
   118    42    48    1
   119    42    72    1
   120    43    44    2
   121    60    73    1
   122    61    74    1
   123    39    69    1
   124    39    57    1
   125    40    70    1
   126    40    50    1
   127    41    71    1
   128    41    49    1
