@<TRIPOS>MOLECULE
*****
 123 128 0 0 0
SMALL
GASTEIGER

@<TRIPOS>ATOM
     1 C         5.164246   1.75698   0.494058 C.3        1 UNL1     0.0009
     2 C         6.598922   2.568235   -0.354828 C.2        1 UNL1     -0.0787
     3 C         7.880938   2.47445   -1.020925 C.2        1 UNL1     -0.0649
     4 C         8.755381   3.713206   -1.774046 C.2        1 UNL1     -0.0542
     5 C         9.77459   4.010204   -2.712173 C.2        1 UNL1     0.0115
     6 C         10.904139   3.389219   -3.579249 C.3        1 UNL1     -0.0348
     7 C         9.866363   5.494942   -3.315596 C.2        1 UNL1     0.2441
     8 O         10.688364   6.317734   -2.936315 O.2        1 UNL1     -0.2702
     9 N         9.1155   5.702586   -4.485741 N.am        1 UNL1     -0.2772
     10 C         7.831922   6.085597   -4.171015 C.2        1 UNL1     0.1049
     11 C         6.98846   5.111593   -3.880998 C.2        1 UNL1     0.0801
     12 C         6.529948   7.686248   -2.756761 C.ar        1 UNL1     0.0753
     13 C         5.773602   6.555621   -2.311527 C.ar        1 UNL1     0.0305
     14 C         5.893514   5.251547   -2.95965 C.2        1 UNL1     0.0924
     15 N         7.114181   3.783241   -4.042874 N.pl3        1 UNL1     -0.3170
     16 C         5.845775   3.180435   -3.729784 C.3        1 UNL1     0.1275
     17 N         5.207264   4.132127   -2.747791 N.2        1 UNL1     -0.2557
     18 C         4.992621   3.240136   -4.993218 C.3        1 UNL1     0.0016
     19 C         5.748956   2.560174   -6.123351 C.3        1 UNL1     0.0026
     20 N         6.022386   1.181909   -5.740401 N.3        1 UNL1     -0.3018
     21 C         6.786284   1.020726   -4.501511 C.3        1 UNL1     0.0026
     22 C         6.006069   1.707076   -3.378977 C.3        1 UNL1     0.0016
     23 C         6.468668   0.365733   -6.851856 C.3        1 UNL1     0.0012
     24 C         5.313681   0.115591   -7.834296 C.3        1 UNL1     -0.0339
     25 C         5.336722   1.121252   -8.997125 C.3        1 UNL1     -0.0615
     26 C         5.356379   -1.317981   -8.334126 C.3        1 UNL1     -0.0615
     27 C         6.322382   8.95233   -2.214478 C.ar        1 UNL1     0.1347
     28 C         5.362823   9.217623   -1.253794 C.ar        1 UNL1     0.0342
     29 C         4.66399   8.080571   -0.795634 C.ar        1 UNL1     0.1435
     30 C         4.886376   6.800119   -1.303774 C.ar        1 UNL1     0.0774
     31 O         3.622851   8.189914   0.058227 O.3        1 UNL1     -0.4436
     32 C         2.904052   6.955701   -0.086404 C.3        1 UNL1     0.3143
     33 C         3.919607   5.966089   -0.620754 C.2        1 UNL1     0.2504
     34 C         4.912837   10.581754   -0.810216 C.3        1 UNL1     -0.0327
     35 O         2.544625   6.515417   1.228972 O.2        1 UNL1     -0.4528
     36 C         -0.693929   4.576446   0.828657 C.3        1 UNL1     0.0854
     37 C         -0.996398   3.317017   -0.071272 C.3        1 UNL1     0.0236
     38 C         -1.593879   2.05293   0.714125 C.3        1 UNL1     0.1131
     39 C         -0.866692   1.521   2.014324 C.3        1 UNL1     0.0200
     40 C         0.794844   1.379272   2.054963 C.3        1 UNL1     0.0661
     41 C         1.75585   0.615127   0.884425 C.3        1 UNL1     0.0091
     42 C         3.462501   0.982865   0.32094 C.3        1 UNL1     0.0661
     43 C         7.480316   7.483106   -3.878275 C.2        1 UNL1     0.2131
     44 O         7.877986   8.38361   -4.594996 O.2        1 UNL1     -0.2851
     45 O         7.132151   9.990292   -2.670931 O.3        1 UNL1     -0.5056
     46 O         3.938441   4.762326   -0.492476 O.2        1 UNL1     -0.2836
     47 C         5.561822   1.325454   1.931312 C.3        1 UNL1     -0.0566
     48 O         3.914389   -0.42735   0.399738 O.3        1 UNL1     -0.3909
     49 C         0.922033   0.383149   -0.355909 C.3        1 UNL1     -0.0577
     50 O         1.392238   2.597724   2.450207 O.3        1 UNL1     -0.3910
     51 O         -0.81737   4.383599   2.219701 O.3        1 UNL1     -0.3753
     52 C         0.048264   3.161386   -1.224272 C.3        1 UNL1     -0.0564
     53 O         -2.194171   1.0144   -0.187779 O.3        1 UNL1     -0.4608
     54 C         -2.413354   -0.2968   0.144851 C.2        1 UNL1     0.3042
     55 O         -1.838791   -1.2875   -0.304849 O.2        1 UNL1     -0.2512
     56 C         -3.442342   -0.479574   1.223967 C.3        1 UNL1     0.0332
     57 C         -1.589104   2.185687   3.277054 C.3        1 UNL1     -0.0567
     58 C         1.828127   7.20051   -1.169909 C.3        1 UNL1     0.0210
     59 C         -1.164133   5.5539   2.95863 C.3        1 UNL1     0.0372
     60 C         0.633554   5.209123   0.599155 C.2        1 UNL1     -0.0208
     61 C         1.545593   5.644699   1.469329 C.2        1 UNL1     0.0882
     62 H         4.686031   2.739851   0.583428 H        1 UNL1     0.0365
     63 H         6.330218   3.621187   -0.247307 H        1 UNL1     0.0576
     64 H         8.340827   1.509136   -1.244036 H        1 UNL1     0.0615
     65 H         8.266203   4.626738   -1.425267 H        1 UNL1     0.0622
     66 H         -1.440374   5.321865   0.520085 H        1 UNL1     0.0645
     67 H         -1.86276   3.625613   -0.681799 H        1 UNL1     0.0362
     68 H         -2.541919   2.486856   1.066901 H        1 UNL1     0.0741
     69 H         -1.195813   0.508726   2.207685 H        1 UNL1     0.0359
     70 H         0.9083   0.717388   2.93479 H        1 UNL1     0.0600
     71 H         1.801892   -0.406812   1.30925 H        1 UNL1     0.0348
     72 H         3.355622   1.468797   1.301635 H        1 UNL1     0.0602
     73 H         0.75083   5.408788   -0.437006 H        1 UNL1     0.0628
     74 H         1.528703   5.431787   2.538731 H        1 UNL1     0.1022
     75 H         10.951235   2.283735   -3.428519 H        1 UNL1     0.0279
     76 H         10.79015   3.473967   -4.657624 H        1 UNL1     0.0279
     77 H         11.908546   3.695605   -3.252148 H        1 UNL1     0.0279
     78 H         9.05546   4.833579   -5.012333 H        1 UNL1     0.1553
     79 H         7.780359   3.358086   -4.661245 H        1 UNL1     0.1484
     80 H         4.032523   2.74655   -4.799955 H        1 UNL1     0.0317
     81 H         4.763541   4.276912   -5.262049 H        1 UNL1     0.0317
     82 H         6.678333   3.094167   -6.370378 H        1 UNL1     0.0428
     83 H         5.12354   2.615689   -7.014879 H        1 UNL1     0.0428
     84 H         6.909096   -0.022576   -4.19451 H        1 UNL1     0.0428
     85 H         7.815495   1.391386   -4.604722 H        1 UNL1     0.0428
     86 H         6.523217   1.456053   -2.471489 H        1 UNL1     0.0317
     87 H         5.027766   1.226887   -3.254727 H        1 UNL1     0.0317
     88 H         7.263378   0.91048   -7.378146 H        1 UNL1     0.0429
     89 H         6.903533   -0.579743   -6.502943 H        1 UNL1     0.0429
     90 H         4.360653   0.218969   -7.30207 H        1 UNL1     0.0308
     91 H         6.285661   1.079689   -9.540163 H        1 UNL1     0.0233
     92 H         4.516794   0.92666   -9.692438 H        1 UNL1     0.0233
     93 H         5.209992   2.156132   -8.656834 H        1 UNL1     0.0233
     94 H         4.660277   -1.447471   -9.169895 H        1 UNL1     0.0233
     95 H         6.361266   -1.559164   -8.691889 H        1 UNL1     0.0233
     96 H         5.08378   -2.024086   -7.544776 H        1 UNL1     0.0233
     97 H         4.11973   10.528592   -0.07036 H        1 UNL1     0.0280
     98 H         5.724321   11.152736   -0.340398 H        1 UNL1     0.0280
     99 H         4.537702   11.147197   -1.678917 H        1 UNL1     0.0280
     100 H         6.663307   10.740206   -2.992546 H        1 UNL1     0.2922
     101 H         4.700106   0.888754   2.435688 H        1 UNL1     0.0236
     102 H         6.010801   2.130663   2.511864 H        1 UNL1     0.0236
     103 H         6.319952   0.524566   1.928449 H        1 UNL1     0.0236
     104 H         4.334352   -0.554149   1.272964 H        1 UNL1     0.2098
     105 H         0.709721   1.282225   -0.928969 H        1 UNL1     0.0234
     106 H         1.291498   -0.404696   -1.012204 H        1 UNL1     0.0234
     107 H         0.0   -0.0   0.0 H        1 UNL1     0.0234
     108 H         1.192037   3.256932   1.758013 H        1 UNL1     0.2098
     109 H         1.073422   3.049536   -0.844464 H        1 UNL1     0.0234
     110 H         -0.182341   2.33514   -1.905361 H        1 UNL1     0.0234
     111 H         0.067283   4.045586   -1.875252 H        1 UNL1     0.0234
     112 H         -3.566283   -1.544367   1.443514 H        1 UNL1     0.0342
     113 H         -3.194202   0.078894   2.12529 H        1 UNL1     0.0342
     114 H         -4.402796   -0.098745   0.850254 H        1 UNL1     0.0342
     115 H         -2.652625   1.914656   3.328577 H        1 UNL1     0.0234
     116 H         -1.136803   1.924235   4.235759 H        1 UNL1     0.0234
     117 H         -1.652165   3.285958   3.219019 H        1 UNL1     0.0234
     118 H         0.925976   7.684451   -0.75647 H        1 UNL1     0.0309
     119 H         2.195983   7.791095   -2.014949 H        1 UNL1     0.0309
     120 H         1.44168   6.268515   -1.596699 H        1 UNL1     0.0309
     121 H         -0.361621   6.278621   2.824049 H        1 UNL1     0.0524
     122 H         -2.095441   6.018313   2.593908 H        1 UNL1     0.0524
     123 H         -1.279094   5.313173   4.011686 H        1 UNL1     0.0524
@<TRIPOS>BOND
     1     1     2    1
     2     1    42    1
     3     2     3    2
     4     3     4    1
     5     4     5    2
     6     5     7    1
     7     6    75    1
     8     6    76    1
     9     6    77    1
    10     7     9   am
    11     9    10    1
    12    10    11    2
    13    10    43    1
    14    11    14    1
    15    11    15    1
    16    12    13   ar
    17    12    27   ar
    18    12    43    1
    19    13    14    1
    20    13    30   ar
    21    14    17    2
    22    15    16    1
    23    16    17    1
    24    16    18    1
    25    16    22    1
    26    18    19    1
    27    19    20    1
    28    20    21    1
    29    21    22    1
    30    23    24    1
    31    23    88    1
    32    23    89    1
    33    24    25    1
    34    24    26    1
    35    24    90    1
    36    25    91    1
    37    25    92    1
    38    25    93    1
    39    26    94    1
    40    26    95    1
    41    26    96    1
    42    27    28   ar
    43    28    29   ar
    44    29    30   ar
    45    29    31    1
    46    30    33    1
    47    31    32    1
    48    32    33    1
    49    32    35    1
    50    34    97    1
    51    34    98    1
    52    34    99    1
    53    35    61    1
    54    36    37    1
    55    36    60    1
    56    37    38    1
    57    38    39    1
    58    39    40    1
    59    40    41    1
    60    41    42    1
    61    45   100    1
    62    47   101    1
    63    47   102    1
    64    47   103    1
    65    48   104    1
    66    49   105    1
    67    49   106    1
    68    49   107    1
    69    50   108    1
    70    51    59    1
    71    52   109    1
    72    52   110    1
    73    52   111    1
    74    53    54    1
    75    54    55    2
    76    54    56    1
    77    56   112    1
    78    56   113    1
    79    56   114    1
    80    57   115    1
    81    57   116    1
    82    57   117    1
    83    58   118    1
    84    58   119    1
    85    58   120    1
    86    59   121    1
    87    59   122    1
    88    59   123    1
    89    60    61    2
    90     1    47    1
    91     1    62    1
    92     2    63    1
    93     3    64    1
    94     4    65    1
    95     5     6    1
    96     7     8    2
    97     9    78    1
    98    15    79    1
    99    18    80    1
   100    18    81    1
   101    19    82    1
   102    19    83    1
   103    20    23    1
   104    21    84    1
   105    21    85    1
   106    22    86    1
   107    22    87    1
   108    27    45    1
   109    28    34    1
   110    32    58    1
   111    33    46    2
   112    36    51    1
   113    36    66    1
   114    37    52    1
   115    37    67    1
   116    38    53    1
   117    38    68    1
   118    42    48    1
   119    42    72    1
   120    43    44    2
   121    60    73    1
   122    61    74    1
   123    39    69    1
   124    39    57    1
   125    40    70    1
   126    40    50    1
   127    41    71    1
   128    41    49    1
