@<TRIPOS>MOLECULE
*****
 123 128 0 0 0
SMALL
GASTEIGER

@<TRIPOS>ATOM
     1 C         5.168552   1.742766   0.498418 C.3        1 UNL1     0.0009
     2 C         6.607141   2.547685   -0.349878 C.2        1 UNL1     -0.0787
     3 C         7.88978   2.448409   -1.013977 C.2        1 UNL1     -0.0649
     4 C         8.769435   3.682873   -1.768075 C.2        1 UNL1     -0.0542
     5 C         9.790964   3.974769   -2.70528 C.2        1 UNL1     0.0115
     6 C         10.919656   3.348447   -3.569629 C.3        1 UNL1     -0.0348
     7 C         9.888565   5.458102   -3.311237 C.2        1 UNL1     0.2441
     8 O         10.712779   6.27882   -2.932265 O.2        1 UNL1     -0.2702
     9 N         9.140064   5.666151   -4.482823 N.am        1 UNL1     -0.2772
     10 C         7.85733   6.054022   -4.170615 C.2        1 UNL1     0.1049
     11 C         7.0102   5.08337   -3.880052 C.2        1 UNL1     0.0801
     12 C         6.558719   7.661566   -2.761096 C.ar        1 UNL1     0.0753
     13 C         5.797959   6.534281   -2.31491 C.ar        1 UNL1     0.0305
     14 C         5.914422   5.228647   -2.960518 C.2        1 UNL1     0.0924
     15 N         7.1317   3.754315   -4.039362 N.pl3        1 UNL1     -0.3170
     16 C         5.860839   3.156323   -3.726998 C.3        1 UNL1     0.1275
     17 N         5.224126   4.111913   -2.747627 N.2        1 UNL1     -0.2557
     18 C         5.009684   3.216604   -4.991752 C.3        1 UNL1     0.0016
     19 C         5.76534   2.53208   -6.119582 C.3        1 UNL1     0.0026
     20 N         6.033609   1.1536   -5.733768 N.3        1 UNL1     -0.3018
     21 C         6.795203   0.992092   -4.493503 C.3        1 UNL1     0.0026
     22 C         6.015699   1.68307   -3.373317 C.3        1 UNL1     0.0016
     23 C         6.478731   0.333934   -6.843118 C.3        1 UNL1     0.0012
     24 C         5.32319   0.082252   -7.824514 C.3        1 UNL1     -0.0339
     25 C         5.341766   1.090148   -8.985487 C.3        1 UNL1     -0.0615
     26 C         5.369419   -1.350252   -8.327082 C.3        1 UNL1     -0.0615
     27 C         6.354626   8.92931   -2.221384 C.ar        1 UNL1     0.1347
     28 C         5.394598   9.199543   -1.262546 C.ar        1 UNL1     0.0342
     29 C         4.691312   8.065663   -0.803341 C.ar        1 UNL1     0.1435
     30 C         4.910128   6.783561   -1.308863 C.ar        1 UNL1     0.0774
     31 O         3.649334   8.180028   0.048838 O.3        1 UNL1     -0.4436
     32 C         2.926611   6.947969   -0.094601 C.3        1 UNL1     0.3143
     33 C         3.939602   5.954002   -0.625725 C.2        1 UNL1     0.2504
     34 C         4.948555   10.565968   -0.822061 C.3        1 UNL1     -0.0327
     35 O         2.563844   6.51126   1.22105 O.2        1 UNL1     -0.4528
     36 C         -0.680614   4.582422   0.819603 C.3        1 UNL1     0.0854
     37 C         -0.986023   3.322393   -0.078492 C.3        1 UNL1     0.0236
     38 C         -1.588849   2.06173   0.708321 C.3        1 UNL1     0.1131
     39 C         -0.865294   1.529711   2.010509 C.3        1 UNL1     0.0200
     40 C         0.795698   1.382496   2.05377 C.3        1 UNL1     0.0661
     41 C         1.7558   0.613032   0.885977 C.3        1 UNL1     0.0091
     42 C         3.464471   0.97404   0.324266 C.3        1 UNL1     0.0661
     43 C         7.509992   7.453224   -3.880887 C.2        1 UNL1     0.2131
     44 O         7.911693   8.3511   -4.598656 O.2        1 UNL1     -0.2851
     45 O         7.168513   9.963732   -2.678546 O.3        1 UNL1     -0.5056
     46 O         3.954222   4.750417   -0.495258 O.2        1 UNL1     -0.2836
     47 C         5.56264   1.312501   1.93701 C.3        1 UNL1     -0.0566
     48 O         3.911521   -0.437535   0.40624 O.3        1 UNL1     -0.3909
     49 C         0.922972   0.381613   -0.355126 C.3        1 UNL1     -0.0577
     50 O         1.396609   2.599652   2.447677 O.3        1 UNL1     -0.3910
     51 O         -0.806676   4.392494   2.210814 O.3        1 UNL1     -0.3753
     52 C         0.059747   3.16119   -1.229721 C.3        1 UNL1     -0.0564
     53 O         -2.191336   1.023592   -0.192571 O.3        1 UNL1     -0.4608
     54 C         -2.415381   -0.286266   0.142101 C.2        1 UNL1     0.3042
     55 O         -1.843631   -1.279704   -0.305136 O.2        1 UNL1     -0.2512
     56 C         -3.446317   -0.463637   1.220259 C.3        1 UNL1     0.0332
     57 C         -1.587267   2.199085   3.271011 C.3        1 UNL1     -0.0567
     58 C         1.85305   7.194426   -1.180076 C.3        1 UNL1     0.0210
     59 C         -1.158268   5.563576   2.946214 C.3        1 UNL1     0.0372
     60 C         0.649304   5.210238   0.590857 C.2        1 UNL1     -0.0208
     61 C         1.561561   5.644324   1.461546 C.2        1 UNL1     0.0882
     62 H         4.693506   2.727391   0.585341 H        1 UNL1     0.0365
     63 H         6.341813   3.601722   -0.244632 H        1 UNL1     0.0576
     64 H         8.346749   1.481161   -1.234699 H        1 UNL1     0.0615
     65 H         8.282825   4.598665   -1.421635 H        1 UNL1     0.0622
     66 H         -1.42412   5.329777   0.508629 H        1 UNL1     0.0645
     67 H         -1.85048   3.632787   -0.690807 H        1 UNL1     0.0362
     68 H         -2.53593   2.499461   1.058965 H        1 UNL1     0.0741
     69 H         -1.198078   0.518894   2.205218 H        1 UNL1     0.0359
     70 H         0.905688   0.721821   2.934945 H        1 UNL1     0.0600
     71 H         1.797816   -0.408289   1.312703 H        1 UNL1     0.0348
     72 H         3.357829   1.462093   1.303933 H        1 UNL1     0.0602
     73 H         0.768719   5.407642   -0.445492 H        1 UNL1     0.0628
     74 H         1.54244   5.433396   2.531304 H        1 UNL1     0.1022
     75 H         10.962834   2.243083   -3.416847 H        1 UNL1     0.0279
     76 H         10.807481   3.431633   -4.648316 H        1 UNL1     0.0279
     77 H         11.924618   3.652058   -3.241647 H        1 UNL1     0.0279
     78 H         9.07786   4.796403   -5.007938 H        1 UNL1     0.1553
     79 H         7.797328   3.32582   -4.656018 H        1 UNL1     0.1484
     80 H         4.047664   2.726583   -4.798971 H        1 UNL1     0.0317
     81 H         4.78446   4.253654   -5.262771 H        1 UNL1     0.0317
     82 H         6.69685   3.062513   -6.366243 H        1 UNL1     0.0428
     83 H         5.141379   2.588083   -7.012099 H        1 UNL1     0.0428
     84 H         6.914084   -0.051061   -4.184454 H        1 UNL1     0.0428
     85 H         7.825796   1.359119   -4.595913 H        1 UNL1     0.0428
     86 H         6.530715   1.431952   -2.464643 H        1 UNL1     0.0317
     87 H         5.035618   1.206383   -3.249599 H        1 UNL1     0.0317
     88 H         7.273821   0.876442   -7.371145 H        1 UNL1     0.0429
     89 H         6.912761   -0.611016   -6.491748 H        1 UNL1     0.0429
     90 H         4.370564   0.181849   -7.290849 H        1 UNL1     0.0308
     91 H         6.289516   1.051286   -9.530796 H        1 UNL1     0.0233
     92 H         4.520573   0.895423   -9.679268 H        1 UNL1     0.0233
     93 H         5.214003   2.124158   -8.642944 H        1 UNL1     0.0233
     94 H         4.672601   -1.480214   -9.162181 H        1 UNL1     0.0233
     95 H         6.374535   -1.587827   -8.68661 H        1 UNL1     0.0233
     96 H         5.099921   -2.058625   -7.5387 H        1 UNL1     0.0233
     97 H         4.154225   10.516794   -0.083242 H        1 UNL1     0.0280
     98 H         5.761279   11.135077   -0.352113 H        1 UNL1     0.0280
     99 H         4.576549   11.131099   -1.69231 H        1 UNL1     0.0280
     100 H         6.702639   10.7145   -3.002476 H        1 UNL1     0.2922
     101 H         4.699154   0.878172   2.440405 H        1 UNL1     0.0236
     102 H         6.012099   2.11766   2.517259 H        1 UNL1     0.0236
     103 H         6.319229   0.51015   1.936675 H        1 UNL1     0.0236
     104 H         4.332346   -0.563429   1.279182 H        1 UNL1     0.2098
     105 H         0.712586   1.280693   -0.928889 H        1 UNL1     0.0234
     106 H         1.291987   -0.40712   -1.010606 H        1 UNL1     0.0234
     107 H         0.0   -0.0   0.0 H        1 UNL1     0.0234
     108 H         1.197205   3.259012   1.755398 H        1 UNL1     0.2098
     109 H         1.083211   3.040403   -0.848088 H        1 UNL1     0.0234
     110 H         -0.175952   2.33835   -1.913185 H        1 UNL1     0.0234
     111 H         0.087057   4.046704   -1.878616 H        1 UNL1     0.0234
     112 H         -3.574145   -1.527613   1.441532 H        1 UNL1     0.0342
     113 H         -3.197396   0.09558   2.120903 H        1 UNL1     0.0342
     114 H         -4.40501   -0.080212   0.844683 H        1 UNL1     0.0342
     115 H         -2.651761   1.931708   3.321506 H        1 UNL1     0.0234
     116 H         -1.137205   1.937848   4.230828 H        1 UNL1     0.0234
     117 H         -1.64656   3.299455   3.210911 H        1 UNL1     0.0234
     118 H         0.95194   7.682127   -0.768793 H        1 UNL1     0.0309
     119 H         2.224081   7.782254   -2.025651 H        1 UNL1     0.0309
     120 H         1.464089   6.262962   -1.605742 H        1 UNL1     0.0309
     121 H         -0.358909   6.291314   2.809178 H        1 UNL1     0.0524
     122 H         -2.091655   6.022859   2.580308 H        1 UNL1     0.0524
     123 H         -1.271927   5.325616   4.000041 H        1 UNL1     0.0524
@<TRIPOS>BOND
     1     1     2    1
     2     1    42    1
     3     2     3    2
     4     3     4    1
     5     4     5    2
     6     5     7    1
     7     6    75    1
     8     6    76    1
     9     6    77    1
    10     7     9   am
    11     9    10    1
    12    10    11    2
    13    10    43    1
    14    11    14    1
    15    11    15    1
    16    12    13   ar
    17    12    27   ar
    18    12    43    1
    19    13    14    1
    20    13    30   ar
    21    14    17    2
    22    15    16    1
    23    16    17    1
    24    16    18    1
    25    16    22    1
    26    18    19    1
    27    19    20    1
    28    20    21    1
    29    21    22    1
    30    23    24    1
    31    23    88    1
    32    23    89    1
    33    24    25    1
    34    24    26    1
    35    24    90    1
    36    25    91    1
    37    25    92    1
    38    25    93    1
    39    26    94    1
    40    26    95    1
    41    26    96    1
    42    27    28   ar
    43    28    29   ar
    44    29    30   ar
    45    29    31    1
    46    30    33    1
    47    31    32    1
    48    32    33    1
    49    32    35    1
    50    34    97    1
    51    34    98    1
    52    34    99    1
    53    35    61    1
    54    36    37    1
    55    36    60    1
    56    37    38    1
    57    38    39    1
    58    39    40    1
    59    40    41    1
    60    41    42    1
    61    45   100    1
    62    47   101    1
    63    47   102    1
    64    47   103    1
    65    48   104    1
    66    49   105    1
    67    49   106    1
    68    49   107    1
    69    50   108    1
    70    51    59    1
    71    52   109    1
    72    52   110    1
    73    52   111    1
    74    53    54    1
    75    54    55    2
    76    54    56    1
    77    56   112    1
    78    56   113    1
    79    56   114    1
    80    57   115    1
    81    57   116    1
    82    57   117    1
    83    58   118    1
    84    58   119    1
    85    58   120    1
    86    59   121    1
    87    59   122    1
    88    59   123    1
    89    60    61    2
    90     1    47    1
    91     1    62    1
    92     2    63    1
    93     3    64    1
    94     4    65    1
    95     5     6    1
    96     7     8    2
    97     9    78    1
    98    15    79    1
    99    18    80    1
   100    18    81    1
   101    19    82    1
   102    19    83    1
   103    20    23    1
   104    21    84    1
   105    21    85    1
   106    22    86    1
   107    22    87    1
   108    27    45    1
   109    28    34    1
   110    32    58    1
   111    33    46    2
   112    36    51    1
   113    36    66    1
   114    37    52    1
   115    37    67    1
   116    38    53    1
   117    38    68    1
   118    42    48    1
   119    42    72    1
   120    43    44    2
   121    60    73    1
   122    61    74    1
   123    39    69    1
   124    39    57    1
   125    40    70    1
   126    40    50    1
   127    41    71    1
   128    41    49    1
