@<TRIPOS>MOLECULE
*****
 123 128 0 0 0
SMALL
GASTEIGER

@<TRIPOS>ATOM
     1 C         1.90667   4.256881   -1.426991 C.3        1 UNL1     0.0009
     2 C         3.550565   5.105966   -1.544051 C.2        1 UNL1     -0.0787
     3 C         4.629689   5.844831   -0.923073 C.2        1 UNL1     -0.0649
     4 C         6.108084   6.301876   -1.609961 C.2        1 UNL1     -0.0542
     5 C         7.437884   6.70844   -1.339007 C.2        1 UNL1     0.0115
     6 C         8.406678   7.169777   -0.21565 C.3        1 UNL1     -0.0348
     7 C         8.536927   6.59696   -2.503767 C.2        1 UNL1     0.2441
     8 O         8.920258   7.561361   -3.151466 O.2        1 UNL1     -0.2702
     9 N         9.219079   5.368845   -2.554299 N.am        1 UNL1     -0.2772
     10 C         8.53339   4.470624   -3.339378 C.2        1 UNL1     0.1049
     11 C         7.543604   3.822042   -2.75296 C.2        1 UNL1     0.0801
     12 C         7.423907   4.226913   -5.568052 C.ar        1 UNL1     0.0753
     13 C         6.288258   3.719926   -4.859621 C.ar        1 UNL1     0.0305
     14 C         6.361438   3.378465   -3.440783 C.2        1 UNL1     0.0924
     15 N         7.218836   3.735327   -1.451601 N.pl3        1 UNL1     -0.3170
     16 C         6.161479   2.767594   -1.326133 C.3        1 UNL1     0.1275
     17 N         5.449549   2.811231   -2.656161 N.2        1 UNL1     -0.2557
     18 C         6.81546   1.391829   -1.240799 C.3        1 UNL1     0.0016
     19 C         7.80452   1.394284   -0.086095 C.3        1 UNL1     0.0026
     20 N         7.088922   1.711352   1.142081 N.3        1 UNL1     -0.3018
     21 C         6.375252   2.990011   1.133398 C.3        1 UNL1     0.0026
     22 C         5.383975   2.963817   -0.031323 C.3        1 UNL1     0.0016
     23 C         7.870359   1.448213   2.334036 C.3        1 UNL1     0.0012
     24 C         7.561129   0.046189   2.882181 C.3        1 UNL1     -0.0339
     25 C         8.403485   -0.268407   4.129387 C.3        1 UNL1     -0.0615
     26 C         6.074543   -0.086767   3.163546 C.3        1 UNL1     -0.0615
     27 C         7.381633   4.435787   -6.944534 C.ar        1 UNL1     0.1347
     28 C         6.277293   4.138229   -7.722957 C.ar        1 UNL1     0.0342
     29 C         5.15476   3.686373   -6.997072 C.ar        1 UNL1     0.1435
     30 C         5.170724   3.50661   -5.613363 C.ar        1 UNL1     0.0774
     31 O         4.039412   3.251128   -7.622825 O.3        1 UNL1     -0.4436
     32 C         3.355405   2.462067   -6.637741 C.3        1 UNL1     0.3143
     33 C         3.862951   2.968144   -5.302639 C.2        1 UNL1     0.2504
     34 C         6.242664   4.097692   -9.225374 C.3        1 UNL1     -0.0327
     35 O         1.965029   2.800782   -6.711081 O.2        1 UNL1     -0.4528
     36 C         0.076515   -0.324458   -5.67451 C.3        1 UNL1     0.0854
     37 C         0.178617   -1.152263   -4.335915 C.3        1 UNL1     0.0236
     38 C         -1.210346   -1.358871   -3.561422 C.3        1 UNL1     0.1131
     39 C         -2.132784   -0.110402   -3.256952 C.3        1 UNL1     0.0200
     40 C         -1.469242   1.31363   -2.696341 C.3        1 UNL1     0.0661
     41 C         -0.387618   1.462462   -1.398054 C.3        1 UNL1     0.0091
     42 C         0.978668   2.654215   -1.118071 C.3        1 UNL1     0.0661
     43 C         8.677438   4.438501   -4.802448 C.2        1 UNL1     0.2131
     44 O         9.780763   4.480457   -5.315918 O.2        1 UNL1     -0.2851
     45 O         8.514745   4.974783   -7.550323 O.3        1 UNL1     -0.5056
     46 O         3.304438   2.950991   -4.228571 O.2        1 UNL1     -0.2836
     47 C         0.763698   5.303988   -1.342354 C.3        1 UNL1     -0.0566
     48 O         0.576114   2.963077   0.275368 O.3        1 UNL1     -0.3909
     49 C         0.14413   0.090985   -1.046216 C.3        1 UNL1     -0.0577
     50 O         -1.047806   2.1278   -3.772093 O.3        1 UNL1     -0.3910
     51 O         -1.172761   0.27485   -5.934455 O.3        1 UNL1     -0.3753
     52 C         1.518399   -0.872761   -3.579731 C.3        1 UNL1     -0.0564
     53 O         -1.156127   -2.423   -2.504532 O.3        1 UNL1     -0.4608
     54 C         -2.239623   -3.074531   -1.975881 C.2        1 UNL1     0.3042
     55 O         -2.242266   -4.135502   -1.352846 O.2        1 UNL1     -0.2512
     56 C         -3.534619   -2.335965   -2.160858 C.3        1 UNL1     0.0332
     57 C         -3.219084   -0.016571   -4.427133 C.3        1 UNL1     -0.0567
     58 C         3.835273   1.005121   -6.83412 C.3        1 UNL1     0.0210
     59 C         -1.459431   0.488069   -7.31584 C.3        1 UNL1     0.0372
     60 C         1.104826   0.739335   -5.836007 C.2        1 UNL1     -0.0208
     61 C         0.984692   2.00257   -6.246555 C.2        1 UNL1     0.0882
     62 H         1.997366   3.977326   -2.483559 H        1 UNL1     0.0365
     63 H         3.748338   5.019999   -2.614549 H        1 UNL1     0.0576
     64 H         4.64508   6.040976   0.151357 H        1 UNL1     0.0615
     65 H         5.958398   6.141587   -2.681121 H        1 UNL1     0.0622
     66 H         0.274678   -1.05813   -6.468553 H        1 UNL1     0.0645
     67 H         0.397223   -2.18056   -4.67263 H        1 UNL1     0.0362
     68 H         -1.755402   -1.94748   -4.315064 H        1 UNL1     0.0741
     69 H         -2.827119   -0.37427   -2.47039 H        1 UNL1     0.0359
     70 H         -2.380879   1.811088   -2.313569 H        1 UNL1     0.0600
     71 H         -1.102371   1.637094   -0.570051 H        1 UNL1     0.0348
     72 H         0.328567   3.111294   -1.878178 H        1 UNL1     0.0602
     73 H         2.068415   0.319123   -5.687122 H        1 UNL1     0.0628
     74 H         0.034618   2.524374   -6.366212 H        1 UNL1     0.1022
     75 H         9.345762   6.565819   -0.235376 H        1 UNL1     0.0279
     76 H         8.781682   8.188318   -0.286459 H        1 UNL1     0.0279
     77 H         8.026491   6.946572   0.79199 H        1 UNL1     0.0279
     78 H         9.280792   4.973105   -1.618532 H        1 UNL1     0.1553
     79 H         7.853587   3.947129   -0.703828 H        1 UNL1     0.1484
     80 H         6.035918   0.63359   -1.098835 H        1 UNL1     0.0317
     81 H         7.327706   1.143361   -2.176491 H        1 UNL1     0.0317
     82 H         8.629005   2.101868   -0.257744 H        1 UNL1     0.0428
     83 H         8.26058   0.404677   -0.044411 H        1 UNL1     0.0428
     84 H         5.781759   3.167224   2.035714 H        1 UNL1     0.0428
     85 H         7.06621   3.843559   1.096629 H        1 UNL1     0.0428
     86 H         4.790818   3.853324   0.073227 H        1 UNL1     0.0317
     87 H         4.656894   2.155446   0.113543 H        1 UNL1     0.0317
     88 H         8.93312   1.490509   2.061922 H        1 UNL1     0.0429
     89 H         7.70321   2.21798   3.098427 H        1 UNL1     0.0429
     90 H         7.787773   -0.699165   2.110629 H        1 UNL1     0.0308
     91 H         8.178757   0.42405   4.94615 H        1 UNL1     0.0233
     92 H         8.225466   -1.291869   4.467681 H        1 UNL1     0.0233
     93 H         9.480394   -0.193275   3.935845 H        1 UNL1     0.0233
     94 H         5.590359   -0.666492   2.370249 H        1 UNL1     0.0233
     95 H         5.918901   -0.613707   4.1091 H        1 UNL1     0.0233
     96 H         5.590187   0.89204   3.221032 H        1 UNL1     0.0233
     97 H         5.29376   3.726797   -9.601206 H        1 UNL1     0.0280
     98 H         6.373307   5.093224   -9.669338 H        1 UNL1     0.0280
     99 H         7.043154   3.436255   -9.595256 H        1 UNL1     0.0280
     100 H         9.010943   5.558278   -7.003565 H        1 UNL1     0.2922
     101 H         1.175011   6.307037   -1.453581 H        1 UNL1     0.0236
     102 H         0.159674   5.207292   -0.440806 H        1 UNL1     0.0236
     103 H         0.046198   5.20197   -2.173605 H        1 UNL1     0.0236
     104 H         0.087629   3.809323   0.260573 H        1 UNL1     0.2098
     105 H         -0.380291   -0.730963   -1.527043 H        1 UNL1     0.0234
     106 H         1.220963   -0.024999   -1.1683 H        1 UNL1     0.0234
     107 H         0.0   0.0   0.0 H        1 UNL1     0.0234
     108 H         -1.102232   3.05567   -3.472322 H        1 UNL1     0.2098
     109 H         1.84231   0.172594   -3.679861 H        1 UNL1     0.0234
     110 H         1.478791   -1.144116   -2.519288 H        1 UNL1     0.0234
     111 H         2.342532   -1.478845   -3.978997 H        1 UNL1     0.0234
     112 H         -4.362092   -3.048204   -2.234002 H        1 UNL1     0.0342
     113 H         -3.710745   -1.612715   -1.366041 H        1 UNL1     0.0342
     114 H         -3.481707   -1.782708   -3.10863 H        1 UNL1     0.0342
     115 H         -3.023947   -0.7463   -5.225009 H        1 UNL1     0.0234
     116 H         -4.247356   -0.164435   -4.091215 H        1 UNL1     0.0234
     117 H         -3.177889   0.931427   -4.990644 H        1 UNL1     0.0234
     118 H         3.066379   0.376884   -7.316951 H        1 UNL1     0.0309
     119 H         4.766788   0.932778   -7.404425 H        1 UNL1     0.0309
     120 H         4.020686   0.49197   -5.88417 H        1 UNL1     0.0309
     121 H         -1.288755   1.542962   -7.528974 H        1 UNL1     0.0524
     122 H         -0.796058   -0.095492   -7.975712 H        1 UNL1     0.0524
     123 H         -2.491146   0.224409   -7.530646 H        1 UNL1     0.0524
@<TRIPOS>BOND
     1     1     2    1
     2     1    42    1
     3     2     3    2
     4     3     4    1
     5     4     5    2
     6     5     7    1
     7     6    75    1
     8     6    76    1
     9     6    77    1
    10     7     9   am
    11     9    10    1
    12    10    11    2
    13    10    43    1
    14    11    14    1
    15    11    15    1
    16    12    13   ar
    17    12    27   ar
    18    12    43    1
    19    13    14    1
    20    13    30   ar
    21    14    17    2
    22    15    16    1
    23    16    17    1
    24    16    18    1
    25    16    22    1
    26    18    19    1
    27    19    20    1
    28    20    21    1
    29    21    22    1
    30    23    24    1
    31    23    88    1
    32    23    89    1
    33    24    25    1
    34    24    26    1
    35    24    90    1
    36    25    91    1
    37    25    92    1
    38    25    93    1
    39    26    94    1
    40    26    95    1
    41    26    96    1
    42    27    28   ar
    43    28    29   ar
    44    29    30   ar
    45    29    31    1
    46    30    33    1
    47    31    32    1
    48    32    33    1
    49    32    35    1
    50    34    97    1
    51    34    98    1
    52    34    99    1
    53    35    61    1
    54    36    37    1
    55    36    60    1
    56    37    38    1
    57    38    39    1
    58    39    40    1
    59    40    41    1
    60    41    42    1
    61    45   100    1
    62    47   101    1
    63    47   102    1
    64    47   103    1
    65    48   104    1
    66    49   105    1
    67    49   106    1
    68    49   107    1
    69    50   108    1
    70    51    59    1
    71    52   109    1
    72    52   110    1
    73    52   111    1
    74    53    54    1
    75    54    55    2
    76    54    56    1
    77    56   112    1
    78    56   113    1
    79    56   114    1
    80    57   115    1
    81    57   116    1
    82    57   117    1
    83    58   118    1
    84    58   119    1
    85    58   120    1
    86    59   121    1
    87    59   122    1
    88    59   123    1
    89    60    61    2
    90     1    47    1
    91     1    62    1
    92     2    63    1
    93     3    64    1
    94     4    65    1
    95     5     6    1
    96     7     8    2
    97     9    78    1
    98    15    79    1
    99    18    80    1
   100    18    81    1
   101    19    82    1
   102    19    83    1
   103    20    23    1
   104    21    84    1
   105    21    85    1
   106    22    86    1
   107    22    87    1
   108    27    45    1
   109    28    34    1
   110    32    58    1
   111    33    46    2
   112    36    51    1
   113    36    66    1
   114    37    52    1
   115    37    67    1
   116    38    53    1
   117    38    68    1
   118    42    48    1
   119    42    72    1
   120    43    44    2
   121    60    73    1
   122    61    74    1
   123    39    69    1
   124    39    57    1
   125    40    70    1
   126    40    50    1
   127    41    71    1
   128    41    49    1
