@<TRIPOS>MOLECULE
*****
 123 128 0 0 0
SMALL
GASTEIGER

@<TRIPOS>ATOM
     1 C         4.083008   0.850834   -2.765119 C.3        1 UNL1     0.0009
     2 C         5.683277   1.786585   -2.74171 C.2        1 UNL1     -0.0787
     3 C         6.421915   3.01675   -2.934463 C.2        1 UNL1     -0.0649
     4 C         8.055624   3.312413   -2.602898 C.2        1 UNL1     -0.0542
     5 C         9.028714   4.313416   -2.361719 C.2        1 UNL1     0.0115
     6 C         9.291978   5.844064   -2.395386 C.3        1 UNL1     -0.0348
     7 C         10.417202   3.896962   -1.672041 C.2        1 UNL1     0.2441
     8 O         11.458145   3.762045   -2.30034 O.2        1 UNL1     -0.2702
     9 N         10.41706   3.952398   -0.267378 N.am        1 UNL1     -0.2772
     10 C         9.984509   2.757506   0.26031 C.2        1 UNL1     0.1049
     11 C         8.676122   2.592548   0.331982 C.2        1 UNL1     0.0801
     12 C         10.327022   0.284017   0.112414 C.ar        1 UNL1     0.0753
     13 C         8.905856   0.173934   -0.017115 C.ar        1 UNL1     0.0305
     14 C         8.025153   1.315343   0.22079 C.2        1 UNL1     0.0924
     15 N         7.682916   3.483156   0.168015 N.pl3        1 UNL1     -0.3170
     16 C         6.448234   2.834467   0.52159 C.3        1 UNL1     0.1275
     17 N         6.696544   1.372067   0.243286 N.2        1 UNL1     -0.2557
     18 C         6.290166   2.956818   2.03412 C.3        1 UNL1     0.0016
     19 C         6.357345   4.427786   2.412709 C.3        1 UNL1     0.0026
     20 N         5.294825   5.139211   1.715607 N.3        1 UNL1     -0.3018
     21 C         5.326608   5.028947   0.255744 C.3        1 UNL1     0.0026
     22 C         5.25342   3.543556   -0.102238 C.3        1 UNL1     0.0016
     23 C         5.080733   6.477408   2.229452 C.3        1 UNL1     0.0012
     24 C         4.451425   6.422144   3.630407 C.3        1 UNL1     -0.0339
     25 C         3.487332   7.597556   3.860597 C.3        1 UNL1     -0.0615
     26 C         3.762414   5.08485   3.839427 C.3        1 UNL1     -0.0615
     27 C         11.15049   -0.834037   0.002989 C.ar        1 UNL1     0.1347
     28 C         10.667149   -2.115198   -0.194642 C.ar        1 UNL1     0.0342
     29 C         9.268875   -2.192454   -0.367924 C.ar        1 UNL1     0.1435
     30 C         8.434792   -1.075993   -0.296927 C.ar        1 UNL1     0.0774
     31 O         8.634749   -3.381771   -0.459651 O.3        1 UNL1     -0.4436
     32 C         7.264493   -3.087054   -0.14915 C.3        1 UNL1     0.3143
     33 C         7.098332   -1.611507   -0.451417 C.2        1 UNL1     0.2504
     34 C         11.461171   -3.385837   -0.071742 C.3        1 UNL1     -0.0327
     35 O         6.451778   -3.799709   -1.089825 O.2        1 UNL1     -0.4528
     36 C         3.206541   -4.578264   0.718593 C.3        1 UNL1     0.0854
     37 C         2.18648   -3.590197   1.404685 C.3        1 UNL1     0.0236
     38 C         0.673522   -3.714328   0.887682 C.3        1 UNL1     0.1131
     39 C         0.368803   -3.680148   -0.664171 C.3        1 UNL1     0.0200
     40 C         1.131709   -2.572448   -1.650788 C.3        1 UNL1     0.0661
     41 C         1.246936   -0.903775   -1.368189 C.3        1 UNL1     0.0091
     42 C         2.571661   0.288242   -1.80362 C.3        1 UNL1     0.0661
     43 C         10.88819   1.614116   0.456199 C.2        1 UNL1     0.2131
     44 O         11.981977   1.771373   0.967704 O.2        1 UNL1     -0.2851
     45 O         12.526205   -0.633566   0.096036 O.3        1 UNL1     -0.5056
     46 O         6.093404   -1.01607   -0.769893 O.2        1 UNL1     -0.2836
     47 C         3.657839   0.546106   -4.226746 C.3        1 UNL1     -0.0566
     48 O         1.638012   1.297565   -2.359212 O.3        1 UNL1     -0.3909
     49 C         0.854828   -0.623389   0.065384 C.3        1 UNL1     -0.0577
     50 O         2.374869   -3.073506   -2.099364 O.3        1 UNL1     -0.3910
     51 O         2.70843   -5.317464   -0.373606 O.3        1 UNL1     -0.3753
     52 C         2.843269   -2.208821   1.729304 C.3        1 UNL1     -0.0564
     53 O         -0.323591   -3.033965   1.779421 O.3        1 UNL1     -0.4608
     54 C         -1.43482   -2.353162   1.35562 C.2        1 UNL1     0.3042
     55 O         -1.581495   -1.133641   1.284256 O.2        1 UNL1     -0.2512
     56 C         -2.54592   -3.248517   0.886037 C.3        1 UNL1     0.0332
     57 C         0.2811   -5.19431   -1.171909 C.3        1 UNL1     -0.0567
     58 C         7.104249   -3.305529   1.373388 C.3        1 UNL1     0.0210
     59 C         2.497756   -6.704311   -0.112575 C.3        1 UNL1     0.0372
     60 C         4.480895   -3.954378   0.269205 C.2        1 UNL1     -0.0208
     61 C         5.154993   -4.092052   -0.873328 C.2        1 UNL1     0.0882
     62 H         4.618147   -0.035534   -2.403611 H        1 UNL1     0.0365
     63 H         6.384369   0.984928   -2.500283 H        1 UNL1     0.0576
     64 H         5.91773   3.955586   -3.174236 H        1 UNL1     0.0615
     65 H         8.476871   2.313973   -2.457467 H        1 UNL1     0.0622
     66 H         3.481455   -5.286539   1.512831 H        1 UNL1     0.0645
     67 H         2.097577   -3.970884   2.437029 H        1 UNL1     0.0362
     68 H         0.454561   -4.745174   1.205384 H        1 UNL1     0.0741
     69 H         -0.677326   -3.44512   -0.808338 H        1 UNL1     0.0359
     70 H         0.475031   -2.625215   -2.540198 H        1 UNL1     0.0600
     71 H         0.347706   -0.553142   -1.911695 H        1 UNL1     0.0348
     72 H         2.721217   -0.583412   -2.457202 H        1 UNL1     0.0602
     73 H         4.911513   -3.41815   1.078079 H        1 UNL1     0.0628
     74 H         4.760561   -4.575758   -1.767582 H        1 UNL1     0.1022
     75 H         8.933761   6.282369   -3.357988 H        1 UNL1     0.0279
     76 H         8.766292   6.443132   -1.655223 H        1 UNL1     0.0279
     77 H         10.363276   6.09065   -2.430269 H        1 UNL1     0.0279
     78 H         9.774058   4.676442   0.046289 H        1 UNL1     0.1553
     79 H         7.810787   4.476804   0.224989 H        1 UNL1     0.1484
     80 H         5.333524   2.510143   2.33091 H        1 UNL1     0.0317
     81 H         7.073148   2.396242   2.555986 H        1 UNL1     0.0317
     82 H         7.341377   4.862629   2.183571 H        1 UNL1     0.0428
     83 H         6.244318   4.492017   3.495368 H        1 UNL1     0.0428
     84 H         4.473993   5.504706   -0.238738 H        1 UNL1     0.0428
     85 H         6.201378   5.536649   -0.173596 H        1 UNL1     0.0428
     86 H         5.144733   3.508157   -1.170377 H        1 UNL1     0.0317
     87 H         4.311646   3.116055   0.263001 H        1 UNL1     0.0317
     88 H         6.056612   6.97479   2.304059 H        1 UNL1     0.0429
     89 H         4.466977   7.074712   1.542936 H        1 UNL1     0.0429
     90 H         5.246789   6.47025   4.383596 H        1 UNL1     0.0308
     91 H         2.82056   7.73855   3.004653 H        1 UNL1     0.0233
     92 H         2.887756   7.435076   4.759328 H        1 UNL1     0.0233
     93 H         4.015028   8.546915   4.012551 H        1 UNL1     0.0233
     94 H         3.007778   5.168104   4.629003 H        1 UNL1     0.0233
     95 H         3.255971   4.777741   2.920101 H        1 UNL1     0.0233
     96 H         4.477189   4.308018   4.125081 H        1 UNL1     0.0233
     97 H         11.044164   -4.056405   0.673694 H        1 UNL1     0.0280
     98 H         11.479954   -3.954537   -1.010615 H        1 UNL1     0.0280
     99 H         12.497171   -3.146925   0.219329 H        1 UNL1     0.0280
     100 H         12.858733   0.05837   -0.448273 H        1 UNL1     0.2922
     101 H         3.847912   -0.502674   -4.453881 H        1 UNL1     0.0236
     102 H         4.118945   1.212385   -4.955057 H        1 UNL1     0.0236
     103 H         2.572746   0.67288   -4.377391 H        1 UNL1     0.0236
     104 H         0.935045   0.816838   -2.838491 H        1 UNL1     0.2098
     105 H         0.579738   -1.506435   0.636669 H        1 UNL1     0.0234
     106 H         1.570667   -0.020169   0.62362 H        1 UNL1     0.0234
     107 H         0.0   0.0   0.0 H        1 UNL1     0.0234
     108 H         2.3696   -3.031409   -3.075052 H        1 UNL1     0.2098
     109 H         3.690809   -2.303806   2.422389 H        1 UNL1     0.0234
     110 H         3.160961   -1.662461   0.834705 H        1 UNL1     0.0234
     111 H         2.133798   -1.528411   2.218833 H        1 UNL1     0.0234
     112 H         -3.391245   -2.644136   0.543261 H        1 UNL1     0.0342
     113 H         -2.216768   -3.936408   0.108664 H        1 UNL1     0.0342
     114 H         -2.886287   -3.849815   1.740294 H        1 UNL1     0.0342
     115 H         0.380765   -5.265346   -2.263792 H        1 UNL1     0.0234
     116 H         1.029926   -5.854749   -0.730175 H        1 UNL1     0.0234
     117 H         -0.710776   -5.653098   -1.018168 H        1 UNL1     0.0234
     118 H         6.485085   -4.190527   1.602341 H        1 UNL1     0.0309
     119 H         8.061035   -3.392387   1.898001 H        1 UNL1     0.0309
     120 H         6.564301   -2.486529   1.861037 H        1 UNL1     0.0309
     121 H         2.571301   -7.233437   -1.062298 H        1 UNL1     0.0524
     122 H         3.262933   -7.124114   0.561448 H        1 UNL1     0.0524
     123 H         1.516821   -6.859104   0.327766 H        1 UNL1     0.0524
@<TRIPOS>BOND
     1     1     2    1
     2     1    42    1
     3     2     3    2
     4     3     4    1
     5     4     5    2
     6     5     7    1
     7     6    75    1
     8     6    76    1
     9     6    77    1
    10     7     9   am
    11     9    10    1
    12    10    11    2
    13    10    43    1
    14    11    14    1
    15    11    15    1
    16    12    13   ar
    17    12    27   ar
    18    12    43    1
    19    13    14    1
    20    13    30   ar
    21    14    17    2
    22    15    16    1
    23    16    17    1
    24    16    18    1
    25    16    22    1
    26    18    19    1
    27    19    20    1
    28    20    21    1
    29    21    22    1
    30    23    24    1
    31    23    88    1
    32    23    89    1
    33    24    25    1
    34    24    26    1
    35    24    90    1
    36    25    91    1
    37    25    92    1
    38    25    93    1
    39    26    94    1
    40    26    95    1
    41    26    96    1
    42    27    28   ar
    43    28    29   ar
    44    29    30   ar
    45    29    31    1
    46    30    33    1
    47    31    32    1
    48    32    33    1
    49    32    35    1
    50    34    97    1
    51    34    98    1
    52    34    99    1
    53    35    61    1
    54    36    37    1
    55    36    60    1
    56    37    38    1
    57    38    39    1
    58    39    40    1
    59    40    41    1
    60    41    42    1
    61    45   100    1
    62    47   101    1
    63    47   102    1
    64    47   103    1
    65    48   104    1
    66    49   105    1
    67    49   106    1
    68    49   107    1
    69    50   108    1
    70    51    59    1
    71    52   109    1
    72    52   110    1
    73    52   111    1
    74    53    54    1
    75    54    55    2
    76    54    56    1
    77    56   112    1
    78    56   113    1
    79    56   114    1
    80    57   115    1
    81    57   116    1
    82    57   117    1
    83    58   118    1
    84    58   119    1
    85    58   120    1
    86    59   121    1
    87    59   122    1
    88    59   123    1
    89    60    61    2
    90     1    47    1
    91     1    62    1
    92     2    63    1
    93     3    64    1
    94     4    65    1
    95     5     6    1
    96     7     8    2
    97     9    78    1
    98    15    79    1
    99    18    80    1
   100    18    81    1
   101    19    82    1
   102    19    83    1
   103    20    23    1
   104    21    84    1
   105    21    85    1
   106    22    86    1
   107    22    87    1
   108    27    45    1
   109    28    34    1
   110    32    58    1
   111    33    46    2
   112    36    51    1
   113    36    66    1
   114    37    52    1
   115    37    67    1
   116    38    53    1
   117    38    68    1
   118    42    48    1
   119    42    72    1
   120    43    44    2
   121    60    73    1
   122    61    74    1
   123    39    69    1
   124    39    57    1
   125    40    70    1
   126    40    50    1
   127    41    71    1
   128    41    49    1
