@<TRIPOS>MOLECULE
*****
 123 128 0 0 0
SMALL
GASTEIGER

@<TRIPOS>ATOM
     1 C         4.196914   2.856163   2.056093 C.3        1 UNL1     0.0009
     2 C         5.500583   4.130244   1.718154 C.2        1 UNL1     -0.0787
     3 C         6.874905   4.471879   1.417207 C.2        1 UNL1     -0.0649
     4 C         7.514266   5.999507   1.065173 C.2        1 UNL1     -0.0542
     5 C         8.596707   6.697137   0.474653 C.2        1 UNL1     0.0115
     6 C         10.024194   6.534036   -0.116109 C.3        1 UNL1     -0.0348
     7 C         8.403328   8.241269   0.080635 C.2        1 UNL1     0.2441
     8 O         8.848975   9.160568   0.75355 O.2        1 UNL1     -0.2702
     9 N         7.916538   8.460793   -1.219748 N.am        1 UNL1     -0.2772
     10 C         6.540574   8.456252   -1.224544 C.2        1 UNL1     0.1049
     11 C         5.962635   7.269979   -1.278987 C.2        1 UNL1     0.0801
     12 C         4.54973   9.415119   -0.052175 C.ar        1 UNL1     0.0753
     13 C         4.061123   8.073593   0.048716 C.ar        1 UNL1     0.0305
     14 C         4.690393   6.973371   -0.678319 C.2        1 UNL1     0.0924
     15 N         6.491597   6.06264   -1.541777 N.pl3        1 UNL1     -0.3170
     16 C         5.408016   5.12214   -1.649326 C.3        1 UNL1     0.1275
     17 N         4.317917   5.700686   -0.780596 N.2        1 UNL1     -0.2557
     18 C         4.889279   5.191924   -3.082415 C.3        1 UNL1     0.0016
     19 C         6.046784   4.92735   -4.032032 C.3        1 UNL1     0.0026
     20 N         6.601229   3.612929   -3.738919 N.3        1 UNL1     -0.3018
     21 C         7.071147   3.428826   -2.364273 C.3        1 UNL1     0.0026
     22 C         5.891365   3.694975   -1.427696 C.3        1 UNL1     0.0016
     23 C         7.504114   3.139236   -4.768996 C.3        1 UNL1     0.0012
     24 C         6.726628   2.790295   -6.047868 C.3        1 UNL1     -0.0339
     25 C         6.73379   3.959034   -7.046895 C.3        1 UNL1     -0.0615
     26 C         7.286179   1.52164   -6.667703 C.3        1 UNL1     -0.0615
     27 C         3.874055   10.47623   0.545843 C.ar        1 UNL1     0.1347
     28 C         2.683436   10.32539   1.234121 C.ar        1 UNL1     0.0342
     29 C         2.247199   8.989558   1.362235 C.ar        1 UNL1     0.1435
     30 C         2.932821   7.912381   0.799357 C.ar        1 UNL1     0.0774
     31 O         1.049309   8.688795   1.909598 O.3        1 UNL1     -0.4436
     32 C         0.761406   7.361287   1.445155 C.3        1 UNL1     0.3143
     33 C         2.109639   6.760345   1.102591 C.2        1 UNL1     0.2504
     34 C         1.777253   11.437931   1.682657 C.3        1 UNL1     -0.0327
     35 O         0.246354   6.622428   2.559633 O.2        1 UNL1     -0.4528
     36 C         -2.129867   4.050524   1.094378 C.3        1 UNL1     0.0854
     37 C         -1.848173   2.93361   0.017032 C.3        1 UNL1     0.0236
     38 C         -2.229984   1.444015   0.472084 C.3        1 UNL1     0.1131
     39 C         -1.703936   0.886649   1.855879 C.3        1 UNL1     0.0200
     40 C         -0.126327   1.15144   2.328609 C.3        1 UNL1     0.0661
     41 C         1.254831   0.863837   1.386645 C.3        1 UNL1     0.0091
     42 C         2.870687   1.731541   1.347919 C.3        1 UNL1     0.0661
     43 C         5.751501   9.65121   -0.890189 C.2        1 UNL1     0.2131
     44 O         6.033855   10.733122   -1.372353 O.2        1 UNL1     -0.2851
     45 O         4.441121   11.744459   0.438757 O.3        1 UNL1     -0.5056
     46 O         2.436793   5.59466   1.10186 O.2        1 UNL1     -0.2836
     47 C         4.356031   2.289711   3.492684 C.3        1 UNL1     -0.0566
     48 O         3.670709   0.48379   1.394813 O.3        1 UNL1     -0.3909
     49 C         0.830969   0.656189   -0.050268 C.3        1 UNL1     -0.0577
     50 O         -0.005037   2.390165   2.998363 O.3        1 UNL1     -0.3910
     51 O         -2.512454   3.592119   2.371454 O.3        1 UNL1     -0.3753
     52 C         -0.564708   3.243633   -0.820555 C.3        1 UNL1     -0.0564
     53 O         -2.287405   0.465109   -0.664037 O.3        1 UNL1     -0.4608
     54 C         -2.212081   -0.897899   -0.543769 C.2        1 UNL1     0.3042
     55 O         -1.297384   -1.631203   -0.917179 O.2        1 UNL1     -0.2512
     56 C         -3.379619   -1.502984   0.182482 C.3        1 UNL1     0.0332
     57 C         -2.856244   1.121683   2.939908 C.3        1 UNL1     -0.0567
     58 C         -0.058584   7.521394   0.143806 C.3        1 UNL1     0.0210
     59 C         -3.336259   4.493268   3.10979 C.3        1 UNL1     0.0372
     60 C         -1.019049   5.0193   1.301062 C.2        1 UNL1     -0.0208
     61 C         -0.494056   5.505244   2.426666 C.2        1 UNL1     0.0882
     62 H         3.453909   3.660465   2.117356 H        1 UNL1     0.0365
     63 H         4.928699   5.049508   1.860884 H        1 UNL1     0.0576
     64 H         7.626857   3.703314   1.224896 H        1 UNL1     0.0615
     65 H         6.720549   6.689455   1.364285 H        1 UNL1     0.0622
     66 H         -2.963573   4.632588   0.677025 H        1 UNL1     0.0645
     67 H         -2.600506   3.122817   -0.768306 H        1 UNL1     0.0362
     68 H         -3.316687   1.563544   0.599804 H        1 UNL1     0.0741
     69 H         -1.769807   -0.193131   1.843849 H        1 UNL1     0.0359
     70 H         -0.037787   0.393627   3.130445 H        1 UNL1     0.0600
     71 H         1.487419   -0.173895   1.696438 H        1 UNL1     0.0348
     72 H         2.407181   1.996464   2.309321 H        1 UNL1     0.0602
     73 H         -0.726276   5.420373   0.36262 H        1 UNL1     0.0628
     74 H         -0.69732   5.110296   3.422627 H        1 UNL1     0.1022
     75 H         10.344764   5.465037   -0.077224 H        1 UNL1     0.0279
     76 H         10.143799   6.776292   -1.16971 H        1 UNL1     0.0279
     77 H         10.797322   7.014799   0.501014 H        1 UNL1     0.0279
     78 H         8.227486   7.709972   -1.832656 H        1 UNL1     0.1553
     79 H         7.374866   5.929062   -1.998861 H        1 UNL1     0.1484
     80 H         4.089718   4.45214   -3.209644 H        1 UNL1     0.0317
     81 H         4.44597   6.171564   -3.29082 H        1 UNL1     0.0317
     82 H         6.818797   5.707577   -3.960233 H        1 UNL1     0.0428
     83 H         5.655184   4.983625   -5.048168 H        1 UNL1     0.0428
     84 H         7.408513   2.410225   -2.148757 H        1 UNL1     0.0428
     85 H         7.948863   4.05252   -2.145329 H        1 UNL1     0.0428
     86 H         6.23357   3.422958   -0.446426 H        1 UNL1     0.0317
     87 H         5.087052   2.975624   -1.62445 H        1 UNL1     0.0317
     88 H         8.212351   3.945767   -4.999652 H        1 UNL1     0.0429
     89 H         8.094758   2.283001   -4.418606 H        1 UNL1     0.0429
     90 H         5.686915   2.561915   -5.785092 H        1 UNL1     0.0308
     91 H         7.75482   4.249282   -7.312143 H        1 UNL1     0.0233
     92 H         6.188802   3.693621   -7.955825 H        1 UNL1     0.0233
     93 H         6.242589   4.854001   -6.646158 H        1 UNL1     0.0233
     94 H         6.868004   1.374405   -7.669346 H        1 UNL1     0.0233
     95 H         8.372637   1.600691   -6.764249 H        1 UNL1     0.0233
     96 H         7.048671   0.642972   -6.061485 H        1 UNL1     0.0233
     97 H         0.882504   11.063009   2.170601 H        1 UNL1     0.0280
     98 H         2.263128   12.098657   2.412468 H        1 UNL1     0.0280
     99 H         1.46967   12.037725   0.810456 H        1 UNL1     0.0280
     100 H         3.867436   12.401254   0.085023 H        1 UNL1     0.2922
     101 H         3.560021   1.573634   3.695805 H        1 UNL1     0.0236
     102 H         4.412719   3.065511   4.25551 H        1 UNL1     0.0236
     103 H         5.288346   1.712311   3.609271 H        1 UNL1     0.0236
     104 H         3.89534   0.312426   2.330306 H        1 UNL1     0.2098
     105 H         0.509657   1.561574   -0.559038 H        1 UNL1     0.0234
     106 H         1.550306   0.113379   -0.663323 H        1 UNL1     0.0234
     107 H         0.0   0.0   0.0 H        1 UNL1     0.0234
     108 H         -0.216337   3.091257   2.35215 H        1 UNL1     0.2098
     109 H         0.33343   3.321442   -0.19206 H        1 UNL1     0.0234
     110 H         -0.388864   2.518929   -1.622818 H        1 UNL1     0.0234
     111 H         -0.645541   4.205687   -1.343876 H        1 UNL1     0.0234
     112 H         -3.253669   -2.587785   0.250948 H        1 UNL1     0.0342
     113 H         -3.521186   -1.063083   1.16853 H        1 UNL1     0.0342
     114 H         -4.287827   -1.305712   -0.403527 H        1 UNL1     0.0342
     115 H         -3.789654   0.613952   2.660366 H        1 UNL1     0.0234
     116 H         -2.592264   0.792528   3.946894 H        1 UNL1     0.0234
     117 H         -3.194456   2.170343   3.002098 H        1 UNL1     0.0234
     118 H         -1.1307   7.689201   0.347313 H        1 UNL1     0.0309
     119 H         0.313073   8.323032   -0.502299 H        1 UNL1     0.0309
     120 H         -0.056904   6.613022   -0.468537 H        1 UNL1     0.0309
     121 H         -2.762164   5.404523   3.275273 H        1 UNL1     0.0524
     122 H         -4.249885   4.771967   2.558745 H        1 UNL1     0.0524
     123 H         -3.619214   4.050642   4.060639 H        1 UNL1     0.0524
@<TRIPOS>BOND
     1     1     2    1
     2     1    42    1
     3     2     3    2
     4     3     4    1
     5     4     5    2
     6     5     7    1
     7     6    75    1
     8     6    76    1
     9     6    77    1
    10     7     9   am
    11     9    10    1
    12    10    11    2
    13    10    43    1
    14    11    14    1
    15    11    15    1
    16    12    13   ar
    17    12    27   ar
    18    12    43    1
    19    13    14    1
    20    13    30   ar
    21    14    17    2
    22    15    16    1
    23    16    17    1
    24    16    18    1
    25    16    22    1
    26    18    19    1
    27    19    20    1
    28    20    21    1
    29    21    22    1
    30    23    24    1
    31    23    88    1
    32    23    89    1
    33    24    25    1
    34    24    26    1
    35    24    90    1
    36    25    91    1
    37    25    92    1
    38    25    93    1
    39    26    94    1
    40    26    95    1
    41    26    96    1
    42    27    28   ar
    43    28    29   ar
    44    29    30   ar
    45    29    31    1
    46    30    33    1
    47    31    32    1
    48    32    33    1
    49    32    35    1
    50    34    97    1
    51    34    98    1
    52    34    99    1
    53    35    61    1
    54    36    37    1
    55    36    60    1
    56    37    38    1
    57    38    39    1
    58    39    40    1
    59    40    41    1
    60    41    42    1
    61    45   100    1
    62    47   101    1
    63    47   102    1
    64    47   103    1
    65    48   104    1
    66    49   105    1
    67    49   106    1
    68    49   107    1
    69    50   108    1
    70    51    59    1
    71    52   109    1
    72    52   110    1
    73    52   111    1
    74    53    54    1
    75    54    55    2
    76    54    56    1
    77    56   112    1
    78    56   113    1
    79    56   114    1
    80    57   115    1
    81    57   116    1
    82    57   117    1
    83    58   118    1
    84    58   119    1
    85    58   120    1
    86    59   121    1
    87    59   122    1
    88    59   123    1
    89    60    61    2
    90     1    47    1
    91     1    62    1
    92     2    63    1
    93     3    64    1
    94     4    65    1
    95     5     6    1
    96     7     8    2
    97     9    78    1
    98    15    79    1
    99    18    80    1
   100    18    81    1
   101    19    82    1
   102    19    83    1
   103    20    23    1
   104    21    84    1
   105    21    85    1
   106    22    86    1
   107    22    87    1
   108    27    45    1
   109    28    34    1
   110    32    58    1
   111    33    46    2
   112    36    51    1
   113    36    66    1
   114    37    52    1
   115    37    67    1
   116    38    53    1
   117    38    68    1
   118    42    48    1
   119    42    72    1
   120    43    44    2
   121    60    73    1
   122    61    74    1
   123    39    69    1
   124    39    57    1
   125    40    70    1
   126    40    50    1
   127    41    71    1
   128    41    49    1
