@<TRIPOS>MOLECULE
*****
 123 128 0 0 0
SMALL
GASTEIGER

@<TRIPOS>ATOM
     1 C         5.194216   1.651709   0.539671 C.3        1 UNL1     0.0009
     2 C         6.632297   2.490776   -0.275759 C.2        1 UNL1     -0.0787
     3 C         7.9058   2.41789   -0.96054 C.2        1 UNL1     -0.0649
     4 C         8.791261   3.686186   -1.64883 C.2        1 UNL1     -0.0542
     5 C         9.80517   4.023331   -2.579099 C.2        1 UNL1     0.0115
     6 C         10.916105   3.43838   -3.493964 C.3        1 UNL1     -0.0348
     7 C         9.913394   5.539734   -3.094658 C.2        1 UNL1     0.2441
     8 O         10.751735   6.326464   -2.676609 O.2        1 UNL1     -0.2702
     9 N         9.153775   5.827367   -4.242001 N.am        1 UNL1     -0.2772
     10 C         7.87951   6.209796   -3.890833 C.2        1 UNL1     0.1049
     11 C         7.024298   5.232763   -3.6495 C.2        1 UNL1     0.0801
     12 C         6.616785   7.742665   -2.369922 C.ar        1 UNL1     0.0753
     13 C         5.84788   6.598824   -1.983889 C.ar        1 UNL1     0.0305
     14 C         5.941169   5.333859   -2.709293 C.2        1 UNL1     0.0924
     15 N         7.128033   3.914649   -3.891039 N.pl3        1 UNL1     -0.3170
     16 C         5.853858   3.312976   -3.599968 C.3        1 UNL1     0.1275
     17 N         5.240115   4.214014   -2.556333 N.2        1 UNL1     -0.2557
     18 C         4.988743   3.459972   -4.848035 C.3        1 UNL1     0.0016
     19 C         5.722916   2.837215   -6.024791 C.3        1 UNL1     0.0026
     20 N         5.979188   1.434813   -5.727096 N.3        1 UNL1     -0.3018
     21 C         6.753258   1.189287   -4.508531 C.3        1 UNL1     0.0026
     22 C         5.995228   1.819219   -3.338715 C.3        1 UNL1     0.0016
     23 C         6.401471   0.679529   -6.889793 C.3        1 UNL1     0.0012
     24 C         5.2316   0.501263   -7.870293 C.3        1 UNL1     -0.0339
     25 C         5.253622   1.572733   -8.972801 C.3        1 UNL1     -0.0615
     26 C         5.249755   -0.901101   -8.45324 C.3        1 UNL1     -0.0615
     27 C         6.434187   8.977269   -1.751432 C.ar        1 UNL1     0.1347
     28 C         5.488742   9.199154   -0.766063 C.ar        1 UNL1     0.0342
     29 C         4.777376   8.047291   -0.368152 C.ar        1 UNL1     0.1435
     30 C         4.974924   6.796102   -0.953576 C.ar        1 UNL1     0.0774
     31 O         3.746882   8.121045   0.502279 O.3        1 UNL1     -0.4436
     32 C         3.007857   6.908236   0.29297 C.3        1 UNL1     0.3143
     33 C         4.002613   5.937285   -0.310295 C.2        1 UNL1     0.2504
     34 C         5.064246   10.541025   -0.237589 C.3        1 UNL1     -0.0327
     35 O         2.655317   6.396043   1.583948 O.2        1 UNL1     -0.4528
     36 C         -0.616437   4.531847   1.105942 C.3        1 UNL1     0.0854
     37 C         -0.94737   3.332558   0.136555 C.3        1 UNL1     0.0236
     38 C         -1.555971   2.033011   0.852464 C.3        1 UNL1     0.1131
     39 C         -0.823639   1.414331   2.110715 C.3        1 UNL1     0.0200
     40 C         0.835868   1.246131   2.124306 C.3        1 UNL1     0.0661
     41 C         1.772975   0.538747   0.89995 C.3        1 UNL1     0.0091
     42 C         3.479149   0.91422   0.340134 C.3        1 UNL1     0.0661
     43 C         7.552332   7.592486   -3.512051 C.2        1 UNL1     0.2131
     44 O         7.956309   8.527983   -4.178672 O.2        1 UNL1     -0.2851
     45 O         7.254974   10.028501   -2.154741 O.3        1 UNL1     -0.5056
     46 O         4.004374   4.727888   -0.253642 O.2        1 UNL1     -0.2836
     47 C         5.59994   1.129946   1.944353 C.3        1 UNL1     -0.0566
     48 O         3.910225   -0.50465   0.330342 O.3        1 UNL1     -0.3909
     49 C         0.922975   0.392955   -0.342523 C.3        1 UNL1     -0.0577
     50 O         1.45585   2.430125   2.5842 O.3        1 UNL1     -0.3910
     51 O         -0.728471   4.258687   2.484442 O.3        1 UNL1     -0.3753
     52 C         0.082857   3.230288   -1.035248 C.3        1 UNL1     -0.0564
     53 O         -2.181322   1.058687   -0.102499 O.3        1 UNL1     -0.4608
     54 C         -2.417074   -0.26658   0.154446 C.2        1 UNL1     0.3042
     55 O         -1.86251   -1.237181   -0.359587 O.2        1 UNL1     -0.2512
     56 C         -3.43737   -0.49793   1.232493 C.3        1 UNL1     0.0332
     57 C         -1.522762   2.013483   3.418544 C.3        1 UNL1     -0.0567
     58 C         1.924691   7.232587   -0.762055 C.3        1 UNL1     0.0210
     59 C         -1.04968   5.388067   3.295116 C.3        1 UNL1     0.0372
     60 C         0.718122   5.157514   0.899413 C.2        1 UNL1     -0.0208
     61 C         1.645627   5.527326   1.783561 C.2        1 UNL1     0.0882
     62 H         4.732021   2.634447   0.692351 H        1 UNL1     0.0365
     63 H         6.380836   3.539322   -0.103162 H        1 UNL1     0.0576
     64 H         8.348563   1.460874   -1.245475 H        1 UNL1     0.0615
     65 H         8.319718   4.584495   -1.241189 H        1 UNL1     0.0622
     66 H         -1.354546   5.3051   0.850361 H        1 UNL1     0.0645
     67 H         -1.815161   3.689464   -0.444923 H        1 UNL1     0.0362
     68 H         -2.493585   2.45909   1.240869 H        1 UNL1     0.0741
     69 H         -1.166178   0.397301   2.247549 H        1 UNL1     0.0359
     70 H         0.948257   0.531652   2.96213 H        1 UNL1     0.0600
     71 H         1.807772   -0.507149   1.263059 H        1 UNL1     0.0348
     72 H         3.389817   1.342661   1.348982 H        1 UNL1     0.0602
     73 H         0.827753   5.416527   -0.124375 H        1 UNL1     0.0628
     74 H         1.636506   5.25165   2.838623 H        1 UNL1     0.1022
     75 H         10.947855   2.325332   -3.409406 H        1 UNL1     0.0279
     76 H         10.792318   3.588579   -4.564097 H        1 UNL1     0.0279
     77 H         11.928393   3.710092   -3.160578 H        1 UNL1     0.0279
     78 H         9.075042   4.992085   -4.818353 H        1 UNL1     0.1553
     79 H         7.781231   3.517199   -4.540884 H        1 UNL1     0.1484
     80 H         4.023258   2.969906   -4.673565 H        1 UNL1     0.0317
     81 H         4.772774   4.514106   -5.052507 H        1 UNL1     0.0317
     82 H         6.657749   3.37125   -6.250194 H        1 UNL1     0.0428
     83 H         5.089269   2.954646   -6.904422 H        1 UNL1     0.0428
     84 H         6.863272   0.127931   -4.265155 H        1 UNL1     0.0428
     85 H         7.786894   1.550305   -4.601154 H        1 UNL1     0.0428
     86 H         6.517803   1.507285   -2.453502 H        1 UNL1     0.0317
     87 H         5.011035   1.346884   -3.232137 H        1 UNL1     0.0317
     88 H         7.196755   1.244339   -7.393587 H        1 UNL1     0.0429
     89 H         6.828259   -0.289935   -6.602101 H        1 UNL1     0.0429
     90 H         4.286467   0.585008   -7.320818 H        1 UNL1     0.0308
     91 H         6.195336   1.551373   -9.529417 H        1 UNL1     0.0233
     92 H         4.422934   1.429072   -9.667731 H        1 UNL1     0.0233
     93 H         5.144378   2.587452   -8.571246 H        1 UNL1     0.0233
     94 H         4.542024   -0.973086   -9.286168 H        1 UNL1     0.0233
     95 H         6.247062   -1.133222   -8.837247 H        1 UNL1     0.0233
     96 H         4.977586   -1.648704   -7.702919 H        1 UNL1     0.0233
     97 H         4.278084   10.455705   0.506657 H        1 UNL1     0.0280
     98 H         5.889157   11.071202   0.256061 H        1 UNL1     0.0280
     99 H         4.688863   11.162414   -1.067081 H        1 UNL1     0.0280
     100 H         6.794353   10.80295   -2.426182 H        1 UNL1     0.2922
     101 H         4.736896   0.676772   2.431634 H        1 UNL1     0.0236
     102 H         6.067128   1.892654   2.566443 H        1 UNL1     0.0236
     103 H         6.345676   0.319622   1.885652 H        1 UNL1     0.0236
     104 H         4.337177   -0.689139   1.189787 H        1 UNL1     0.2098
     105 H         0.716024   1.327811   -0.857331 H        1 UNL1     0.0234
     106 H         1.275264   -0.357811   -1.04975 H        1 UNL1     0.0234
     107 H         0.0   -0.0   0.0 H        1 UNL1     0.0234
     108 H         1.256254   3.132752   1.935937 H        1 UNL1     0.2098
     109 H         1.110044   3.081116   -0.674215 H        1 UNL1     0.0234
     110 H         -0.167351   2.449345   -1.76138 H        1 UNL1     0.0234
     111 H         0.108674   4.151158   -1.632975 H        1 UNL1     0.0234
     112 H         -3.574162   -1.571925   1.391142 H        1 UNL1     0.0342
     113 H         -3.172034   0.00364   2.161938 H        1 UNL1     0.0342
     114 H         -4.396118   -0.082953   0.892258 H        1 UNL1     0.0342
     115 H         -2.589712   1.755475   3.465849 H        1 UNL1     0.0234
     116 H         -1.064654   1.689051   4.35499 H        1 UNL1     0.0234
     117 H         -1.569599   3.116065   3.426384 H        1 UNL1     0.0234
     118 H         1.034348   7.70432   -0.310653 H        1 UNL1     0.0309
     119 H         2.292801   7.86679   -1.574757 H        1 UNL1     0.0309
     120 H         1.519672   6.333297   -1.238859 H        1 UNL1     0.0309
     121 H         -0.239121   6.109008   3.192186 H        1 UNL1     0.0524
     122 H         -1.97915   5.885031   2.97085 H        1 UNL1     0.0524
     123 H         -1.154404   5.087564   4.33378 H        1 UNL1     0.0524
@<TRIPOS>BOND
     1     1     2    1
     2     1    42    1
     3     2     3    2
     4     3     4    1
     5     4     5    2
     6     5     7    1
     7     6    75    1
     8     6    76    1
     9     6    77    1
    10     7     9   am
    11     9    10    1
    12    10    11    2
    13    10    43    1
    14    11    14    1
    15    11    15    1
    16    12    13   ar
    17    12    27   ar
    18    12    43    1
    19    13    14    1
    20    13    30   ar
    21    14    17    2
    22    15    16    1
    23    16    17    1
    24    16    18    1
    25    16    22    1
    26    18    19    1
    27    19    20    1
    28    20    21    1
    29    21    22    1
    30    23    24    1
    31    23    88    1
    32    23    89    1
    33    24    25    1
    34    24    26    1
    35    24    90    1
    36    25    91    1
    37    25    92    1
    38    25    93    1
    39    26    94    1
    40    26    95    1
    41    26    96    1
    42    27    28   ar
    43    28    29   ar
    44    29    30   ar
    45    29    31    1
    46    30    33    1
    47    31    32    1
    48    32    33    1
    49    32    35    1
    50    34    97    1
    51    34    98    1
    52    34    99    1
    53    35    61    1
    54    36    37    1
    55    36    60    1
    56    37    38    1
    57    38    39    1
    58    39    40    1
    59    40    41    1
    60    41    42    1
    61    45   100    1
    62    47   101    1
    63    47   102    1
    64    47   103    1
    65    48   104    1
    66    49   105    1
    67    49   106    1
    68    49   107    1
    69    50   108    1
    70    51    59    1
    71    52   109    1
    72    52   110    1
    73    52   111    1
    74    53    54    1
    75    54    55    2
    76    54    56    1
    77    56   112    1
    78    56   113    1
    79    56   114    1
    80    57   115    1
    81    57   116    1
    82    57   117    1
    83    58   118    1
    84    58   119    1
    85    58   120    1
    86    59   121    1
    87    59   122    1
    88    59   123    1
    89    60    61    2
    90     1    47    1
    91     1    62    1
    92     2    63    1
    93     3    64    1
    94     4    65    1
    95     5     6    1
    96     7     8    2
    97     9    78    1
    98    15    79    1
    99    18    80    1
   100    18    81    1
   101    19    82    1
   102    19    83    1
   103    20    23    1
   104    21    84    1
   105    21    85    1
   106    22    86    1
   107    22    87    1
   108    27    45    1
   109    28    34    1
   110    32    58    1
   111    33    46    2
   112    36    51    1
   113    36    66    1
   114    37    52    1
   115    37    67    1
   116    38    53    1
   117    38    68    1
   118    42    48    1
   119    42    72    1
   120    43    44    2
   121    60    73    1
   122    61    74    1
   123    39    69    1
   124    39    57    1
   125    40    70    1
   126    40    50    1
   127    41    71    1
   128    41    49    1
