@<TRIPOS>MOLECULE
*****
 123 128 0 0 0
SMALL
GASTEIGER

@<TRIPOS>ATOM
     1 C         0.614796   2.334537   -3.569046 C.3        1 UNL1     0.0009
     2 C         1.092   1.737727   -5.258168 C.2        1 UNL1     -0.0787
     3 C         2.074121   1.610014   -6.314185 C.2        1 UNL1     -0.0649
     4 C         1.936655   0.747055   -7.764276 C.2        1 UNL1     -0.0542
     5 C         2.651038   0.146052   -8.829888 C.2        1 UNL1     0.0115
     6 C         4.05456   0.006865   -9.481099 C.3        1 UNL1     -0.0348
     7 C         1.905302   -0.935155   -9.75285 C.2        1 UNL1     0.2441
     8 O         1.476582   -0.674934   -10.868651 O.2        1 UNL1     -0.2702
     9 N         2.008361   -2.263485   -9.304444 N.am        1 UNL1     -0.2772
     10 C         0.990735   -2.553736   -8.424947 C.2        1 UNL1     0.1049
     11 C         1.181941   -2.184766   -7.171343 C.2        1 UNL1     0.0801
     12 C         -1.488485   -2.388823   -8.135802 C.ar        1 UNL1     0.0753
     13 C         -1.221557   -1.796222   -6.860584 C.ar        1 UNL1     0.0305
     14 C         0.120474   -1.796312   -6.282654 C.2        1 UNL1     0.0924
     15 N         2.29804   -1.755018   -6.55802 N.pl3        1 UNL1     -0.3170
     16 C         2.013586   -1.649257   -5.151551 C.3        1 UNL1     0.1275
     17 N         0.528887   -1.38664   -5.085033 N.2        1 UNL1     -0.2557
     18 C         2.226879   -3.03148   -4.541906 C.3        1 UNL1     0.0016
     19 C         3.63956   -3.492259   -4.863785 C.3        1 UNL1     0.0026
     20 N         4.582615   -2.526908   -4.316271 N.3        1 UNL1     -0.3018
     21 C         4.416377   -1.153791   -4.797188 C.3        1 UNL1     0.0026
     22 C         2.992125   -0.709692   -4.459288 C.3        1 UNL1     0.0016
     23 C         5.946884   -3.016045   -4.303653 C.3        1 UNL1     0.0012
     24 C         5.969194   -4.551409   -4.366227 C.3        1 UNL1     -0.0339
     25 C         5.036869   -5.170805   -3.312103 C.3        1 UNL1     -0.0615
     26 C         5.618479   -5.020662   -5.767505 C.3        1 UNL1     -0.0615
     27 C         -2.788272   -2.492553   -8.625611 C.ar        1 UNL1     0.1347
     28 C         -3.901137   -2.077086   -7.916407 C.ar        1 UNL1     0.0342
     29 C         -3.61021   -1.452503   -6.684977 C.ar        1 UNL1     0.1435
     30 C         -2.310495   -1.308961   -6.197783 C.ar        1 UNL1     0.0774
     31 O         -4.590791   -1.092793   -5.828195 O.3        1 UNL1     -0.4436
     32 C         -3.931854   -0.954456   -4.560308 C.3        1 UNL1     0.3143
     33 C         -2.47682   -0.696871   -4.896073 C.2        1 UNL1     0.2504
     34 C         -5.331898   -2.381926   -8.262953 C.3        1 UNL1     -0.0327
     35 O         -4.435751   0.238128   -3.946236 O.2        1 UNL1     -0.4528
     36 C         -4.259792   -0.36472   -0.202749 C.3        1 UNL1     0.0854
     37 C         -3.012639   -0.733637   0.689459 C.3        1 UNL1     0.0236
     38 C         -2.748546   0.255315   1.923952 C.3        1 UNL1     0.1131
     39 C         -2.689475   1.817141   1.680068 C.3        1 UNL1     0.0200
     40 C         -1.859827   2.437307   0.372583 C.3        1 UNL1     0.0661
     41 C         -0.272829   2.040425   -0.07634 C.3        1 UNL1     0.0091
     42 C         0.508263   1.952327   -1.733909 C.3        1 UNL1     0.0661
     43 C         -0.343987   -2.970329   -8.880273 C.2        1 UNL1     0.2131
     44 O         -0.465   -3.818992   -9.745064 O.2        1 UNL1     -0.2851
     45 O         -2.957332   -3.040902   -9.895323 O.3        1 UNL1     -0.5056
     46 O         -1.647437   -0.101132   -4.245633 O.2        1 UNL1     -0.2836
     47 C         0.382543   3.869393   -3.58509 C.3        1 UNL1     -0.0566
     48 O         1.70908   2.725529   -1.334767 O.3        1 UNL1     -0.3909
     49 C         0.152106   0.800387   0.678133 C.3        1 UNL1     -0.0577
     50 O         -2.688667   2.482216   -0.771415 O.3        1 UNL1     -0.3910
     51 O         -4.878195   0.869522   0.083005 O.3        1 UNL1     -0.3753
     52 C         -1.84482   -1.331143   -0.161502 C.3        1 UNL1     -0.0564
     53 O         -1.796674   -0.298052   2.943781 O.3        1 UNL1     -0.4608
     54 C         -1.082866   0.442394   3.849401 C.2        1 UNL1     0.3042
     55 O         -0.848025   0.161566   5.02406 O.2        1 UNL1     -0.2512
     56 C         -0.499816   1.700398   3.271307 C.3        1 UNL1     0.0332
     57 C         -4.142879   2.408873   1.989335 C.3        1 UNL1     -0.0567
     58 C         -4.045987   -2.326497   -3.856029 C.3        1 UNL1     0.0210
     59 C         -6.223506   0.986764   -0.377711 C.3        1 UNL1     0.0372
     60 C         -4.013159   -0.391665   -1.670266 C.2        1 UNL1     -0.0208
     61 C         -4.365238   0.473734   -2.622037 C.2        1 UNL1     0.0882
     62 H         -0.368548   1.867819   -3.702916 H        1 UNL1     0.0365
     63 H         0.141939   1.325389   -5.604337 H        1 UNL1     0.0576
     64 H         3.104089   1.94885   -6.182038 H        1 UNL1     0.0615
     65 H         0.867965   0.527633   -7.836652 H        1 UNL1     0.0622
     66 H         -4.987139   -1.164589   -0.004706 H        1 UNL1     0.0645
     67 H         -3.319318   -1.657483   1.210051 H        1 UNL1     0.0362
     68 H         -3.672288   0.084302   2.497517 H        1 UNL1     0.0741
     69 H         -2.190214   2.28188   2.519808 H        1 UNL1     0.0359
     70 H         -1.767619   3.493924   0.688996 H        1 UNL1     0.0600
     71 H         0.284677   2.827536   0.468272 H        1 UNL1     0.0348
     72 H         -0.39432   2.568497   -1.856359 H        1 UNL1     0.0602
     73 H         -3.582378   -1.325275   -1.934934 H        1 UNL1     0.0628
     74 H         -4.758047   1.473164   -2.432093 H        1 UNL1     0.1022
     75 H         4.502946   -0.986453   -9.237578 H        1 UNL1     0.0279
     76 H         4.088334   0.018956   -10.568197 H        1 UNL1     0.0279
     77 H         4.795787   0.69221   -9.044539 H        1 UNL1     0.0279
     78 H         2.887822   -2.38955   -8.80772 H        1 UNL1     0.1553
     79 H         3.223379   -1.90569   -6.915762 H        1 UNL1     0.1484
     80 H         2.061178   -2.974187   -3.459304 H        1 UNL1     0.0317
     81 H         1.497231   -3.748545   -4.933163 H        1 UNL1     0.0317
     82 H         3.788976   -3.621674   -5.945838 H        1 UNL1     0.0428
     83 H         3.76971   -4.480388   -4.42139 H        1 UNL1     0.0428
     84 H         5.083779   -0.435108   -4.311512 H        1 UNL1     0.0428
     85 H         4.657942   -1.062663   -5.865205 H        1 UNL1     0.0428
     86 H         2.949168   0.33557   -4.703359 H        1 UNL1     0.0317
     87 H         2.843363   -0.722901   -3.372646 H        1 UNL1     0.0317
     88 H         6.458992   -2.622603   -5.191484 H        1 UNL1     0.0429
     89 H         6.49455   -2.647473   -3.426731 H        1 UNL1     0.0429
     90 H         6.99053   -4.903711   -4.179229 H        1 UNL1     0.0308
     91 H         4.693206   -4.419697   -2.594583 H        1 UNL1     0.0233
     92 H         4.170017   -5.635082   -3.788153 H        1 UNL1     0.0233
     93 H         5.528305   -5.962235   -2.733341 H        1 UNL1     0.0233
     94 H         5.567619   -6.114429   -5.79788 H        1 UNL1     0.0233
     95 H         4.639577   -4.629453   -6.058484 H        1 UNL1     0.0233
     96 H         6.362338   -4.688911   -6.497289 H        1 UNL1     0.0233
     97 H         -5.659235   -1.847102   -9.149544 H        1 UNL1     0.0280
     98 H         -5.487293   -3.446845   -8.479882 H        1 UNL1     0.0280
     99 H         -5.984813   -2.091705   -7.423567 H        1 UNL1     0.0280
     100 H         -2.746924   -3.956025   -9.957774 H        1 UNL1     0.2922
     101 H         -0.681681   4.08128   -3.484152 H        1 UNL1     0.0236
     102 H         0.816321   4.359477   -4.456088 H        1 UNL1     0.0236
     103 H         0.850479   4.368113   -2.719927 H        1 UNL1     0.0236
     104 H         1.748357   2.726171   -0.358331 H        1 UNL1     0.2098
     105 H         1.198041   0.791273   0.974358 H        1 UNL1     0.0234
     106 H         -0.482857   0.543153   1.525823 H        1 UNL1     0.0234
     107 H         0.0   -0.0   0.0 H        1 UNL1     0.0234
     108 H         -2.246072   3.053789   -1.428058 H        1 UNL1     0.2098
     109 H         -1.495187   -0.633865   -0.935628 H        1 UNL1     0.0234
     110 H         -0.994837   -1.660818   0.445611 H        1 UNL1     0.0234
     111 H         -2.156947   -2.237641   -0.697026 H        1 UNL1     0.0234
     112 H         -1.264759   2.481916   3.233399 H        1 UNL1     0.0342
     113 H         0.376007   2.037399   3.823763 H        1 UNL1     0.0342
     114 H         -0.182492   1.489473   2.240783 H        1 UNL1     0.0342
     115 H         -4.107071   3.205906   2.744745 H        1 UNL1     0.0234
     116 H         -4.654566   2.810363   1.112391 H        1 UNL1     0.0234
     117 H         -4.818437   1.684382   2.475828 H        1 UNL1     0.0234
     118 H         -3.135882   -2.575125   -3.282532 H        1 UNL1     0.0309
     119 H         -4.916273   -2.399617   -3.196136 H        1 UNL1     0.0309
     120 H         -4.132461   -3.157065   -4.565102 H        1 UNL1     0.0309
     121 H         -6.86783   0.512318   0.361953 H        1 UNL1     0.0524
     122 H         -6.54356   2.037876   -0.47134 H        1 UNL1     0.0524
     123 H         -6.334908   0.497137   -1.341012 H        1 UNL1     0.0524
@<TRIPOS>BOND
     1     1     2    1
     2     1    42    1
     3     2     3    2
     4     3     4    1
     5     4     5    2
     6     5     7    1
     7     6    75    1
     8     6    76    1
     9     6    77    1
    10     7     9   am
    11     9    10    1
    12    10    11    2
    13    10    43    1
    14    11    14    1
    15    11    15    1
    16    12    13   ar
    17    12    27   ar
    18    12    43    1
    19    13    14    1
    20    13    30   ar
    21    14    17    2
    22    15    16    1
    23    16    17    1
    24    16    18    1
    25    16    22    1
    26    18    19    1
    27    19    20    1
    28    20    21    1
    29    21    22    1
    30    23    24    1
    31    23    88    1
    32    23    89    1
    33    24    25    1
    34    24    26    1
    35    24    90    1
    36    25    91    1
    37    25    92    1
    38    25    93    1
    39    26    94    1
    40    26    95    1
    41    26    96    1
    42    27    28   ar
    43    28    29   ar
    44    29    30   ar
    45    29    31    1
    46    30    33    1
    47    31    32    1
    48    32    33    1
    49    32    35    1
    50    34    97    1
    51    34    98    1
    52    34    99    1
    53    35    61    1
    54    36    37    1
    55    36    60    1
    56    37    38    1
    57    38    39    1
    58    39    40    1
    59    40    41    1
    60    41    42    1
    61    45   100    1
    62    47   101    1
    63    47   102    1
    64    47   103    1
    65    48   104    1
    66    49   105    1
    67    49   106    1
    68    49   107    1
    69    50   108    1
    70    51    59    1
    71    52   109    1
    72    52   110    1
    73    52   111    1
    74    53    54    1
    75    54    55    2
    76    54    56    1
    77    56   112    1
    78    56   113    1
    79    56   114    1
    80    57   115    1
    81    57   116    1
    82    57   117    1
    83    58   118    1
    84    58   119    1
    85    58   120    1
    86    59   121    1
    87    59   122    1
    88    59   123    1
    89    60    61    2
    90     1    47    1
    91     1    62    1
    92     2    63    1
    93     3    64    1
    94     4    65    1
    95     5     6    1
    96     7     8    2
    97     9    78    1
    98    15    79    1
    99    18    80    1
   100    18    81    1
   101    19    82    1
   102    19    83    1
   103    20    23    1
   104    21    84    1
   105    21    85    1
   106    22    86    1
   107    22    87    1
   108    27    45    1
   109    28    34    1
   110    32    58    1
   111    33    46    2
   112    36    51    1
   113    36    66    1
   114    37    52    1
   115    37    67    1
   116    38    53    1
   117    38    68    1
   118    42    48    1
   119    42    72    1
   120    43    44    2
   121    60    73    1
   122    61    74    1
   123    39    69    1
   124    39    57    1
   125    40    70    1
   126    40    50    1
   127    41    71    1
   128    41    49    1
