@<TRIPOS>MOLECULE
*****
 123 128 0 0 0
SMALL
GASTEIGER

@<TRIPOS>ATOM
     1 C         4.334943   2.385926   -2.348381 C.3        1 UNL1     0.0009
     2 C         5.849067   2.137841   -3.389016 C.2        1 UNL1     -0.0787
     3 C         7.284391   1.985835   -3.502086 C.2        1 UNL1     -0.0649
     4 C         8.18703   1.630187   -4.889571 C.2        1 UNL1     -0.0542
     5 C         9.422755   1.136656   -5.375872 C.2        1 UNL1     0.0115
     6 C         10.864273   0.731316   -4.962291 C.3        1 UNL1     -0.0348
     7 C         9.514992   0.638529   -6.899142 C.2        1 UNL1     0.2441
     8 O         10.020308   1.30885   -7.789002 O.2        1 UNL1     -0.2702
     9 N         9.214516   -0.72092   -7.093473 N.am        1 UNL1     -0.2772
     10 C         7.863416   -0.890595   -7.291115 C.2        1 UNL1     0.1049
     11 C         7.118695   -0.949144   -6.201994 C.2        1 UNL1     0.0801
     12 C         5.927561   -0.019815   -8.614573 C.ar        1 UNL1     0.0753
     13 C         5.22941   0.094815   -7.370365 C.ar        1 UNL1     0.0305
     14 C         5.757469   -0.490241   -6.139952 C.2        1 UNL1     0.0924
     15 N         7.480476   -1.0802   -4.914179 N.pl3        1 UNL1     -0.3170
     16 C         6.283154   -1.265513   -4.138078 C.3        1 UNL1     0.1275
     17 N         5.2064   -0.566824   -4.931903 N.2        1 UNL1     -0.2557
     18 C         5.942822   -2.752164   -4.179817 C.3        1 UNL1     0.0016
     19 C         7.143198   -3.540092   -3.679962 C.3        1 UNL1     0.0026
     20 N         7.452093   -3.111193   -2.322885 N.3        1 UNL1     -0.3018
     21 C         7.733279   -1.682089   -2.171339 C.3        1 UNL1     0.0026
     22 C         6.512714   -0.909849   -2.675084 C.3        1 UNL1     0.0016
     23 C         8.37905   -3.998019   -1.648399 C.3        1 UNL1     0.0012
     24 C         7.701645   -5.338389   -1.322377 C.3        1 UNL1     -0.0339
     25 C         7.996015   -6.394205   -2.400642 C.3        1 UNL1     -0.0615
     26 C         8.1253   -5.814249   0.056337 C.3        1 UNL1     -0.0615
     27 C         5.362138   0.433917   -9.803919 C.ar        1 UNL1     0.1347
     28 C         4.093905   0.981501   -9.879988 C.ar        1 UNL1     0.0342
     29 C         3.445047   1.129092   -8.635656 C.ar        1 UNL1     0.1435
     30 C         4.013874   0.712265   -7.431533 C.ar        1 UNL1     0.0774
     31 O         2.162061   1.544308   -8.554729 O.3        1 UNL1     -0.4436
     32 C         1.72553   1.121869   -7.254014 C.3        1 UNL1     0.3143
     33 C         2.994183   0.976959   -6.438088 C.2        1 UNL1     0.2504
     34 C         3.326616   1.256578   -11.143198 C.3        1 UNL1     -0.0327
     35 O         0.982664   2.205142   -6.681369 O.2        1 UNL1     -0.4528
     36 C         -1.586006   0.60792   -4.388139 C.3        1 UNL1     0.0854
     37 C         -1.363111   -0.365198   -3.167121 C.3        1 UNL1     0.0236
     38 C         -2.018381   0.121407   -1.786693 C.3        1 UNL1     0.1131
     39 C         -1.740772   1.586703   -1.259331 C.3        1 UNL1     0.0200
     40 C         -0.203133   2.230216   -1.322522 C.3        1 UNL1     0.0661
     41 C         1.212425   1.47798   -0.767593 C.3        1 UNL1     0.0091
     42 C         2.937235   1.586165   -1.383003 C.3        1 UNL1     0.0661
     43 C         7.236445   -0.719146   -8.610154 C.2        1 UNL1     0.2131
     44 O         7.734062   -1.222297   -9.60109 O.2        1 UNL1     -0.2851
     45 O         6.126678   0.326566   -10.963829 O.3        1 UNL1     -0.5056
     46 O         3.135338   1.079173   -5.239972 O.2        1 UNL1     -0.2836
     47 C         4.245066   3.860009   -1.869859 C.3        1 UNL1     -0.0566
     48 O         3.524716   1.796833   -0.037789 O.3        1 UNL1     -0.3909
     49 C         0.922793   0.01408   -0.521415 C.3        1 UNL1     -0.0577
     50 O         0.033437   2.841023   -2.574989 O.3        1 UNL1     -0.3910
     51 O         -2.173427   1.852953   -4.084399 O.3        1 UNL1     -0.3753
     52 C         0.037357   -1.058337   -3.223645 C.3        1 UNL1     -0.0564
     53 O         -2.100617   -0.958217   -0.747475 O.3        1 UNL1     -0.4608
     54 C         -2.237361   -0.75521   0.600865 C.2        1 UNL1     0.3042
     55 O         -1.40578   -0.983079   1.478582 O.2        1 UNL1     -0.2512
     56 C         -3.548885   -0.131578   0.985183 C.3        1 UNL1     0.0332
     57 C         -2.955448   2.510106   -1.738982 C.3        1 UNL1     -0.0567
     58 C         1.088842   -0.27529   -7.438691 C.3        1 UNL1     0.0210
     59 C         -2.931015   2.433021   -5.14527 C.3        1 UNL1     0.0372
     60 C         -0.368515   0.893227   -5.195281 C.2        1 UNL1     -0.0208
     61 C         0.097773   2.045477   -5.678642 C.2        1 UNL1     0.0882
     62 H         3.722979   2.313536   -3.255559 H        1 UNL1     0.0365
     63 H         5.413884   2.160468   -4.390301 H        1 UNL1     0.0576
     64 H         7.925126   1.927445   -2.619387 H        1 UNL1     0.0615
     65 H         7.481353   1.793727   -5.708569 H        1 UNL1     0.0622
     66 H         -2.268532   0.062344   -5.054886 H        1 UNL1     0.0645
     67 H         -1.985833   -1.24432   -3.407792 H        1 UNL1     0.0362
     68 H         -3.080937   0.111037   -2.073727 H        1 UNL1     0.0741
     69 H         -1.970969   1.625847   -0.202976 H        1 UNL1     0.0359
     70 H         -0.321808   3.077068   -0.6198 H        1 UNL1     0.0600
     71 H         1.246233   1.869666   0.267973 H        1 UNL1     0.0348
     72 H         2.416981   2.469061   -1.781934 H        1 UNL1     0.0602
     73 H         0.08449   -0.02378   -5.480119 H        1 UNL1     0.0628
     74 H         -0.272755   3.029911   -5.390826 H        1 UNL1     0.1022
     75 H         11.009532   0.866729   -3.863383 H        1 UNL1     0.0279
     76 H         11.135431   -0.311957   -5.10763 H        1 UNL1     0.0279
     77 H         11.629505   1.409596   -5.367331 H        1 UNL1     0.0279
     78 H         9.471438   -1.25014   -6.262814 H        1 UNL1     0.1553
     79 H         8.377485   -1.41997   -4.619449 H        1 UNL1     0.1484
     80 H         5.057538   -2.933855   -3.558505 H        1 UNL1     0.0317
     81 H         5.68196   -3.06547   -5.1964 H        1 UNL1     0.0317
     82 H         8.013802   -3.418864   -4.341223 H        1 UNL1     0.0428
     83 H         6.879579   -4.597434   -3.719761 H        1 UNL1     0.0428
     84 H         7.883321   -1.372325   -1.132423 H        1 UNL1     0.0428
     85 H         8.667234   -1.393764   -2.673249 H        1 UNL1     0.0428
     86 H         6.698348   0.118785   -2.427213 H        1 UNL1     0.0317
     87 H         5.633597   -1.162143   -2.069611 H        1 UNL1     0.0317
     88 H         9.22295   -4.188228   -2.324377 H        1 UNL1     0.0429
     89 H         8.790327   -3.531832   -0.743802 H        1 UNL1     0.0429
     90 H         6.61687   -5.188584   -1.267295 H        1 UNL1     0.0308
     91 H         9.072053   -6.55444   -2.51712 H        1 UNL1     0.0233
     92 H         7.516796   -7.344069   -2.152215 H        1 UNL1     0.0233
     93 H         7.609072   -6.104775   -3.385193 H        1 UNL1     0.0233
     94 H         7.801362   -6.848528   0.214977 H        1 UNL1     0.0233
     95 H         9.215069   -5.785235   0.143086 H        1 UNL1     0.0233
     96 H         7.691792   -5.191678   0.844019 H        1 UNL1     0.0233
     97 H         2.336355   1.653332   -10.94022 H        1 UNL1     0.0280
     98 H         3.825192   2.00225   -11.776168 H        1 UNL1     0.0280
     99 H         3.213584   0.322313   -11.717192 H        1 UNL1     0.0280
     100 H         5.704215   -0.129382   -11.670412 H        1 UNL1     0.2922
     101 H         3.330469   4.004914   -1.295254 H        1 UNL1     0.0236
     102 H         4.336402   4.580604   -2.681883 H        1 UNL1     0.0236
     103 H         5.058325   4.119027   -1.171496 H        1 UNL1     0.0236
     104 H         3.615522   2.760479   0.096794 H        1 UNL1     0.2098
     105 H         0.803389   -0.578268   -1.425118 H        1 UNL1     0.0234
     106 H         1.612833   -0.477626   0.164149 H        1 UNL1     0.0234
     107 H         0.0   0.0   0.0 H        1 UNL1     0.0234
     108 H         0.002132   2.137332   -3.251456 H        1 UNL1     0.2098
     109 H         0.861804   -0.33177   -3.213606 H        1 UNL1     0.0234
     110 H         0.186571   -1.792903   -2.424964 H        1 UNL1     0.0234
     111 H         0.164418   -1.639336   -4.146815 H        1 UNL1     0.0234
     112 H         -3.591247   0.007449   2.069721 H        1 UNL1     0.0342
     113 H         -3.723918   0.808227   0.463673 H        1 UNL1     0.0342
     114 H         -4.353869   -0.823947   0.702709 H        1 UNL1     0.0342
     115 H         -3.916502   2.163117   -1.335047 H        1 UNL1     0.0234
     116 H         -2.846582   3.562429   -1.469145 H        1 UNL1     0.0234
     117 H         -3.148067   2.454976   -2.824247 H        1 UNL1     0.0234
     118 H         0.039702   -0.21142   -7.776673 H        1 UNL1     0.0309
     119 H         1.648925   -0.914922   -8.12817 H        1 UNL1     0.0309
     120 H         1.017716   -0.832468   -6.498159 H        1 UNL1     0.0309
     121 H         -2.250177   2.612079   -5.976987 H        1 UNL1     0.0524
     122 H         -3.727212   1.761133   -5.506759 H        1 UNL1     0.0524
     123 H         -3.379099   3.367569   -4.819793 H        1 UNL1     0.0524
@<TRIPOS>BOND
     1     1     2    1
     2     1    42    1
     3     2     3    2
     4     3     4    1
     5     4     5    2
     6     5     7    1
     7     6    75    1
     8     6    76    1
     9     6    77    1
    10     7     9   am
    11     9    10    1
    12    10    11    2
    13    10    43    1
    14    11    14    1
    15    11    15    1
    16    12    13   ar
    17    12    27   ar
    18    12    43    1
    19    13    14    1
    20    13    30   ar
    21    14    17    2
    22    15    16    1
    23    16    17    1
    24    16    18    1
    25    16    22    1
    26    18    19    1
    27    19    20    1
    28    20    21    1
    29    21    22    1
    30    23    24    1
    31    23    88    1
    32    23    89    1
    33    24    25    1
    34    24    26    1
    35    24    90    1
    36    25    91    1
    37    25    92    1
    38    25    93    1
    39    26    94    1
    40    26    95    1
    41    26    96    1
    42    27    28   ar
    43    28    29   ar
    44    29    30   ar
    45    29    31    1
    46    30    33    1
    47    31    32    1
    48    32    33    1
    49    32    35    1
    50    34    97    1
    51    34    98    1
    52    34    99    1
    53    35    61    1
    54    36    37    1
    55    36    60    1
    56    37    38    1
    57    38    39    1
    58    39    40    1
    59    40    41    1
    60    41    42    1
    61    45   100    1
    62    47   101    1
    63    47   102    1
    64    47   103    1
    65    48   104    1
    66    49   105    1
    67    49   106    1
    68    49   107    1
    69    50   108    1
    70    51    59    1
    71    52   109    1
    72    52   110    1
    73    52   111    1
    74    53    54    1
    75    54    55    2
    76    54    56    1
    77    56   112    1
    78    56   113    1
    79    56   114    1
    80    57   115    1
    81    57   116    1
    82    57   117    1
    83    58   118    1
    84    58   119    1
    85    58   120    1
    86    59   121    1
    87    59   122    1
    88    59   123    1
    89    60    61    2
    90     1    47    1
    91     1    62    1
    92     2    63    1
    93     3    64    1
    94     4    65    1
    95     5     6    1
    96     7     8    2
    97     9    78    1
    98    15    79    1
    99    18    80    1
   100    18    81    1
   101    19    82    1
   102    19    83    1
   103    20    23    1
   104    21    84    1
   105    21    85    1
   106    22    86    1
   107    22    87    1
   108    27    45    1
   109    28    34    1
   110    32    58    1
   111    33    46    2
   112    36    51    1
   113    36    66    1
   114    37    52    1
   115    37    67    1
   116    38    53    1
   117    38    68    1
   118    42    48    1
   119    42    72    1
   120    43    44    2
   121    60    73    1
   122    61    74    1
   123    39    69    1
   124    39    57    1
   125    40    70    1
   126    40    50    1
   127    41    71    1
   128    41    49    1
