@<TRIPOS>MOLECULE
*****
 123 128 0 0 0
SMALL
GASTEIGER

@<TRIPOS>ATOM
     1 C         5.167587   1.746525   0.494941 C.3        1 UNL1     0.0009
     2 C         6.605116   2.552306   -0.35433 C.2        1 UNL1     -0.0787
     3 C         7.887355   2.453798   -1.019316 C.2        1 UNL1     -0.0649
     4 C         8.765764   3.688795   -1.773995 C.2        1 UNL1     -0.0542
     5 C         9.786474   3.98131   -2.711898 C.2        1 UNL1     0.0115
     6 C         10.914937   3.355669   -3.577038 C.3        1 UNL1     -0.0348
     7 C         9.882785   5.464713   -3.317892 C.2        1 UNL1     0.2441
     8 O         10.706778   6.285907   -2.939471 O.2        1 UNL1     -0.2702
     9 N         9.133354   5.672345   -4.488957 N.am        1 UNL1     -0.2772
     10 C         7.850608   6.059455   -4.175856 C.2        1 UNL1     0.1049
     11 C         7.004249   5.0883   -3.884728 C.2        1 UNL1     0.0801
     12 C         6.552025   7.666207   -2.765407 C.ar        1 UNL1     0.0753
     13 C         5.792236   6.538466   -2.31872 C.ar        1 UNL1     0.0305
     14 C         5.909021   5.232915   -2.964436 C.2        1 UNL1     0.0924
     15 N         7.126421   3.75932   -4.04415 N.pl3        1 UNL1     -0.3170
     16 C         5.856127   3.160575   -3.730922 C.3        1 UNL1     0.1275
     17 N         5.219529   4.11577   -2.751092 N.2        1 UNL1     -0.2557
     18 C         5.004064   3.220381   -4.995087 C.3        1 UNL1     0.0016
     19 C         5.759344   2.536324   -6.123452 C.3        1 UNL1     0.0026
     20 N         6.02869   1.157994   -5.737852 N.3        1 UNL1     -0.3018
     21 C         6.791235   0.996909   -4.498116 C.3        1 UNL1     0.0026
     22 C         6.012098   1.687405   -3.377378 C.3        1 UNL1     0.0016
     23 C         6.473528   0.338613   -6.847527 C.3        1 UNL1     0.0012
     24 C         5.318573   0.089911   -7.830369 C.3        1 UNL1     -0.0339
     25 C         5.345239   1.093434   -8.994967 C.3        1 UNL1     -0.0615
     26 C         5.357678   -1.34466   -8.327618 C.3        1 UNL1     -0.0615
     27 C         6.347559   8.93382   -2.225529 C.ar        1 UNL1     0.1347
     28 C         5.388034   9.203469   -1.266023 C.ar        1 UNL1     0.0342
     29 C         4.685732   8.069167   -0.806357 C.ar        1 UNL1     0.1435
     30 C         4.904953   6.787203   -1.312056 C.ar        1 UNL1     0.0774
     31 O         3.644275   8.182901   0.046544 O.3        1 UNL1     -0.4436
     32 C         2.922177   6.95042   -0.096422 C.3        1 UNL1     0.3143
     33 C         3.935386   5.957061   -0.628266 C.2        1 UNL1     0.2504
     34 C         4.941492   10.569623   -0.825201 C.3        1 UNL1     -0.0327
     35 O         2.560575   6.513472   1.21947 O.2        1 UNL1     -0.4528
     36 C         -0.683025   4.582735   0.820221 C.3        1 UNL1     0.0854
     37 C         -0.988313   3.322545   -0.077689 C.3        1 UNL1     0.0236
     38 C         -1.589854   2.061511   0.709513 C.3        1 UNL1     0.1131
     39 C         -0.865088   1.529891   2.01119 C.3        1 UNL1     0.0200
     40 C         0.79602   1.383653   2.053302 C.3        1 UNL1     0.0661
     41 C         1.755768   0.614777   0.884832 C.3        1 UNL1     0.0091
     42 C         3.463838   0.976801   0.321949 C.3        1 UNL1     0.0661
     43 C         7.502647   7.458448   -3.885859 C.2        1 UNL1     0.2131
     44 O         7.903325   8.356574   -4.603887 O.2        1 UNL1     -0.2851
     45 O         7.160523   9.96873   -2.68323 O.3        1 UNL1     -0.5056
     46 O         3.950804   4.753481   -0.497834 O.2        1 UNL1     -0.2836
     47 C         5.562921   1.316462   1.933253 C.3        1 UNL1     -0.0566
     48 O         3.911774   -0.434513   0.403586 O.3        1 UNL1     -0.3909
     49 C         0.92222   0.382893   -0.355701 C.3        1 UNL1     -0.0577
     50 O         1.396486   2.601153   2.44682 O.3        1 UNL1     -0.3910
     51 O         -0.808014   4.392704   2.211514 O.3        1 UNL1     -0.3753
     52 C         0.056758   3.16198   -1.229643 C.3        1 UNL1     -0.0564
     53 O         -2.192352   1.023038   -0.190985 O.3        1 UNL1     -0.4608
     54 C         -2.415396   -0.286958   0.143815 C.2        1 UNL1     0.3042
     55 O         -1.843371   -1.280051   -0.303837 O.2        1 UNL1     -0.2512
     56 C         -3.445483   -0.464957   1.22268 C.3        1 UNL1     0.0332
     57 C         -1.586585   2.198815   3.272205 C.3        1 UNL1     -0.0567
     58 C         1.847723   7.196269   -1.181151 C.3        1 UNL1     0.0210
     59 C         -1.152084   5.565271   2.948107 C.3        1 UNL1     0.0372
     60 C         0.646366   5.211337   0.590571 C.2        1 UNL1     -0.0208
     61 C         1.558968   5.645942   1.460639 C.2        1 UNL1     0.0882
     62 H         4.692022   2.730869   0.582213 H        1 UNL1     0.0365
     63 H         6.339242   3.606185   -0.248879 H        1 UNL1     0.0576
     64 H         8.34474   1.486823   -1.240373 H        1 UNL1     0.0615
     65 H         8.278855   4.604293   -1.4272 H        1 UNL1     0.0622
     66 H         -1.427184   5.329659   0.509775 H        1 UNL1     0.0645
     67 H         -1.853374   3.632443   -0.689402 H        1 UNL1     0.0362
     68 H         -2.53695   2.498678   1.06082 H        1 UNL1     0.0741
     69 H         -1.197143   0.518875   2.206108 H        1 UNL1     0.0359
     70 H         0.907006   0.723024   2.934388 H        1 UNL1     0.0600
     71 H         1.798678   -0.406528   1.311507 H        1 UNL1     0.0348
     72 H         3.357585   1.46477   1.3017 H        1 UNL1     0.0602
     73 H         0.76495   5.408833   -0.445857 H        1 UNL1     0.0628
     74 H         1.54071   5.434981   2.530406 H        1 UNL1     0.1022
     75 H         10.958871   2.250328   -3.42431 H        1 UNL1     0.0279
     76 H         10.80197   3.438811   -4.655646 H        1 UNL1     0.0279
     77 H         11.919947   3.659864   -3.249744 H        1 UNL1     0.0279
     78 H         9.071299   4.802571   -5.014047 H        1 UNL1     0.1553
     79 H         7.791874   3.331229   -4.661274 H        1 UNL1     0.1484
     80 H         4.042467   2.72979   -4.801652 H        1 UNL1     0.0317
     81 H         4.778044   4.257304   -5.265929 H        1 UNL1     0.0317
     82 H         6.690372   3.06731   -6.370745 H        1 UNL1     0.0428
     83 H         5.134735   2.591978   -7.015538 H        1 UNL1     0.0428
     84 H         6.910942   -0.04618   -4.189171 H        1 UNL1     0.0428
     85 H         7.82154   1.364543   -4.60123 H        1 UNL1     0.0428
     86 H         6.527887   1.436572   -2.469065 H        1 UNL1     0.0317
     87 H         5.032382   1.21014   -3.252994 H        1 UNL1     0.0317
     88 H         7.270124   0.880228   -7.374199 H        1 UNL1     0.0429
     89 H         6.905527   -0.607437   -6.496614 H        1 UNL1     0.0429
     90 H         4.365445   0.196865   -7.299029 H        1 UNL1     0.0308
     91 H         6.294456   1.048286   -9.537232 H        1 UNL1     0.0233
     92 H         4.525285   0.899868   -9.690536 H        1 UNL1     0.0233
     93 H         5.221118   2.129263   -8.656609 H        1 UNL1     0.0233
     94 H         4.661832   -1.473717   -9.163668 H        1 UNL1     0.0233
     95 H         6.362157   -1.589252   -8.684214 H        1 UNL1     0.0233
     96 H         5.082555   -2.048606   -7.537215 H        1 UNL1     0.0233
     97 H         4.147701   10.519966   -0.085836 H        1 UNL1     0.0280
     98 H         5.754206   11.139199   -0.355803 H        1 UNL1     0.0280
     99 H         4.568554   11.134553   -1.695182 H        1 UNL1     0.0280
     100 H         6.693986   10.719361   -3.006523 H        1 UNL1     0.2922
     101 H         4.699634   0.883039   2.43777 H        1 UNL1     0.0236
     102 H         6.013697   2.12146   2.512702 H        1 UNL1     0.0236
     103 H         6.318839   0.51348   1.93237 H        1 UNL1     0.0236
     104 H         4.330747   -0.560916   1.277344 H        1 UNL1     0.2098
     105 H         0.710277   1.28197   -0.928895 H        1 UNL1     0.0234
     106 H         1.291665   -0.4051   -1.011829 H        1 UNL1     0.0234
     107 H         0.0   -0.0   0.0 H        1 UNL1     0.0234
     108 H         1.196218   3.26041   1.754692 H        1 UNL1     0.2098
     109 H         1.081325   3.047978   -0.848883 H        1 UNL1     0.0234
     110 H         -0.17563   2.335163   -1.909431 H        1 UNL1     0.0234
     111 H         0.078692   4.044964   -1.882179 H        1 UNL1     0.0234
     112 H         -3.571401   -1.528918   1.445115 H        1 UNL1     0.0342
     113 H         -3.197051   0.095609   2.12262 H        1 UNL1     0.0342
     114 H         -4.405013   -0.08354   0.847197 H        1 UNL1     0.0342
     115 H         -2.650887   1.930812   3.323428 H        1 UNL1     0.0234
     116 H         -1.135707   1.937823   4.231705 H        1 UNL1     0.0234
     117 H         -1.646566   3.299151   3.212168 H        1 UNL1     0.0234
     118 H         0.94661   7.683432   -0.769236 H        1 UNL1     0.0309
     119 H         2.217825   7.784332   -2.02697 H        1 UNL1     0.0309
     120 H         1.459017   6.264585   -1.606568 H        1 UNL1     0.0309
     121 H         -0.347478   6.287535   2.812828 H        1 UNL1     0.0524
     122 H         -2.081841   6.031602   2.581875 H        1 UNL1     0.0524
     123 H         -1.268479   5.326736   4.001505 H        1 UNL1     0.0524
@<TRIPOS>BOND
     1     1     2    1
     2     1    42    1
     3     2     3    2
     4     3     4    1
     5     4     5    2
     6     5     7    1
     7     6    75    1
     8     6    76    1
     9     6    77    1
    10     7     9   am
    11     9    10    1
    12    10    11    2
    13    10    43    1
    14    11    14    1
    15    11    15    1
    16    12    13   ar
    17    12    27   ar
    18    12    43    1
    19    13    14    1
    20    13    30   ar
    21    14    17    2
    22    15    16    1
    23    16    17    1
    24    16    18    1
    25    16    22    1
    26    18    19    1
    27    19    20    1
    28    20    21    1
    29    21    22    1
    30    23    24    1
    31    23    88    1
    32    23    89    1
    33    24    25    1
    34    24    26    1
    35    24    90    1
    36    25    91    1
    37    25    92    1
    38    25    93    1
    39    26    94    1
    40    26    95    1
    41    26    96    1
    42    27    28   ar
    43    28    29   ar
    44    29    30   ar
    45    29    31    1
    46    30    33    1
    47    31    32    1
    48    32    33    1
    49    32    35    1
    50    34    97    1
    51    34    98    1
    52    34    99    1
    53    35    61    1
    54    36    37    1
    55    36    60    1
    56    37    38    1
    57    38    39    1
    58    39    40    1
    59    40    41    1
    60    41    42    1
    61    45   100    1
    62    47   101    1
    63    47   102    1
    64    47   103    1
    65    48   104    1
    66    49   105    1
    67    49   106    1
    68    49   107    1
    69    50   108    1
    70    51    59    1
    71    52   109    1
    72    52   110    1
    73    52   111    1
    74    53    54    1
    75    54    55    2
    76    54    56    1
    77    56   112    1
    78    56   113    1
    79    56   114    1
    80    57   115    1
    81    57   116    1
    82    57   117    1
    83    58   118    1
    84    58   119    1
    85    58   120    1
    86    59   121    1
    87    59   122    1
    88    59   123    1
    89    60    61    2
    90     1    47    1
    91     1    62    1
    92     2    63    1
    93     3    64    1
    94     4    65    1
    95     5     6    1
    96     7     8    2
    97     9    78    1
    98    15    79    1
    99    18    80    1
   100    18    81    1
   101    19    82    1
   102    19    83    1
   103    20    23    1
   104    21    84    1
   105    21    85    1
   106    22    86    1
   107    22    87    1
   108    27    45    1
   109    28    34    1
   110    32    58    1
   111    33    46    2
   112    36    51    1
   113    36    66    1
   114    37    52    1
   115    37    67    1
   116    38    53    1
   117    38    68    1
   118    42    48    1
   119    42    72    1
   120    43    44    2
   121    60    73    1
   122    61    74    1
   123    39    69    1
   124    39    57    1
   125    40    70    1
   126    40    50    1
   127    41    71    1
   128    41    49    1
