@<TRIPOS>MOLECULE
*****
 123 128 0 0 0
SMALL
GASTEIGER

@<TRIPOS>ATOM
     1 C         -4.46559   -1.624289   -0.794683 C.3        1 UNL1     0.0009
     2 C         -5.784505   -1.187019   -2.021995 C.2        1 UNL1     -0.0787
     3 C         -7.098949   -0.657268   -2.318048 C.2        1 UNL1     -0.0649
     4 C         -7.787856   -0.372266   -3.838094 C.2        1 UNL1     -0.0542
     5 C         -8.791828   0.335958   -4.543457 C.2        1 UNL1     0.0115
     6 C         -10.058492   1.2198   -4.377002 C.3        1 UNL1     -0.0348
     7 C         -8.660216   0.490564   -6.135865 C.2        1 UNL1     0.2441
     8 O         -9.30546   -0.185085   -6.925601 O.2        1 UNL1     -0.2702
     9 N         -7.951906   1.628119   -6.560622 N.am        1 UNL1     -0.2772
     10 C         -6.605875   1.353821   -6.639883 C.2        1 UNL1     0.1049
     11 C         -5.927893   1.434423   -5.509367 C.2        1 UNL1     0.0801
     12 C         -4.970018   -0.306824   -7.547387 C.ar        1 UNL1     0.0753
     13 C         -4.395957   -0.339987   -6.236677 C.ar        1 UNL1     0.0305
     14 C         -4.77509   0.628729   -5.210569 C.2        1 UNL1     0.0924
     15 N         -6.289541   1.944862   -4.319749 N.pl3        1 UNL1     -0.3170
     16 C         -5.128393   1.944275   -3.47005 C.3        1 UNL1     0.1275
     17 N         -4.281174   0.808109   -3.988769 N.2        1 UNL1     -0.2557
     18 C         -4.350233   3.222578   -3.766883 C.3        1 UNL1     0.0016
     19 C         -5.274843   4.41261   -3.565613 C.3        1 UNL1     0.0026
     20 N         -5.759674   4.401276   -2.192355 N.3        1 UNL1     -0.3018
     21 C         -6.468926   3.183816   -1.793454 C.3        1 UNL1     0.0026
     22 C         -5.520159   2.001735   -1.999415 C.3        1 UNL1     0.0016
     23 C         -6.401789   5.643331   -1.810735 C.3        1 UNL1     0.0012
     24 C         -7.070244   5.503279   -0.434033 C.3        1 UNL1     -0.0339
     25 C         -8.439927   6.201053   -0.400336 C.3        1 UNL1     -0.0615
     26 C         -7.18064   4.036544   -0.055506 C.3        1 UNL1     -0.0615
     27 C         -4.517191   -1.154845   -8.555319 C.ar        1 UNL1     0.1347
     28 C         -3.473719   -2.046902   -8.383701 C.ar        1 UNL1     0.0342
     29 C         -2.956597   -2.096569   -7.071725 C.ar        1 UNL1     0.1435
     30 C         -3.424553   -1.2787   -6.042489 C.ar        1 UNL1     0.0774
     31 O         -1.865785   -2.834867   -6.771639 O.3        1 UNL1     -0.4436
     32 C         -1.379714   -2.279764   -5.540189 C.3        1 UNL1     0.3143
     33 C         -2.579057   -1.59958   -4.911588 C.2        1 UNL1     0.2504
     34 C         -2.77115   -2.802821   -9.4769 C.3        1 UNL1     -0.0327
     35 O         -1.028039   -3.3767   -4.687951 O.2        1 UNL1     -0.4528
     36 C         1.800199   -2.121324   -2.489499 C.3        1 UNL1     0.0854
     37 C         1.829962   -0.880853   -1.515913 C.3        1 UNL1     0.0236
     38 C         2.243948   -1.218269   -0.003792 C.3        1 UNL1     0.1131
     39 C         1.510366   -2.387553   0.768802 C.3        1 UNL1     0.0200
     40 C         -0.145773   -2.558718   0.667092 C.3        1 UNL1     0.0661
     41 C         -1.288444   -1.327871   0.905687 C.3        1 UNL1     0.0091
     42 C         -2.935181   -1.06815   0.140047 C.3        1 UNL1     0.0661
     43 C         -6.002798   0.722535   -7.823153 C.2        1 UNL1     0.2131
     44 O         -6.279068   1.115956   -8.941917 O.2        1 UNL1     -0.2851
     45 O         -5.160389   -1.090759   -9.789672 O.3        1 UNL1     -0.5056
     46 O         -2.797782   -1.389816   -3.739405 O.2        1 UNL1     -0.2836
     47 C         -4.850004   -2.918291   -0.028024 C.3        1 UNL1     -0.0566
     48 O         -3.618146   -0.798557   1.428455 O.3        1 UNL1     -0.3909
     49 C         -0.578261   0.007357   0.888358 C.3        1 UNL1     -0.0577
     50 O         -0.501054   -3.336261   -0.458485 O.3        1 UNL1     -0.3910
     51 O         1.966696   -3.383618   -1.884254 O.3        1 UNL1     -0.3753
     52 C         0.710864   0.155642   -1.859785 C.3        1 UNL1     -0.0564
     53 O         2.604553   -0.006468   0.804805 O.3        1 UNL1     -0.4608
     54 C         1.97546   1.20921   0.739245 C.2        1 UNL1     0.3042
     55 O         2.407784   2.295507   1.122512 O.2        1 UNL1     -0.2512
     56 C         0.634434   1.156773   0.064253 C.3        1 UNL1     0.0332
     57 C         2.40645   -3.703494   0.615482 C.3        1 UNL1     -0.0567
     58 C         -0.340444   -1.201688   -5.926454 C.3        1 UNL1     0.0210
     59 C         3.318363   -3.831744   -1.794568 C.3        1 UNL1     0.0372
     60 C         0.590808   -2.214971   -3.351917 C.2        1 UNL1     -0.0208
     61 C         -0.182063   -3.261269   -3.646324 C.2        1 UNL1     0.0882
     62 H         -3.820902   -1.933127   -1.626373 H        1 UNL1     0.0365
     63 H         -5.33276   -1.554301   -2.945845 H        1 UNL1     0.0576
     64 H         -7.73012   -0.223675   -1.539121 H        1 UNL1     0.0615
     65 H         -7.129728   -0.908483   -4.527168 H        1 UNL1     0.0622
     66 H         2.645347   -1.956435   -3.172568 H        1 UNL1     0.0645
     67 H         2.700766   -0.293887   -1.856107 H        1 UNL1     0.0362
     68 H         3.270917   -1.577719   -0.170082 H        1 UNL1     0.0741
     69 H         1.670492   -2.25716   1.830765 H        1 UNL1     0.0359
     70 H         -0.321858   -3.226996   1.531649 H        1 UNL1     0.0600
     71 H         -1.485896   -1.454637   1.988231 H        1 UNL1     0.0348
     72 H         -2.691116   -2.128695   -0.018044 H        1 UNL1     0.0602
     73 H         0.451532   -1.292883   -3.859466 H        1 UNL1     0.0628
     74 H         -0.141922   -4.221801   -3.131538 H        1 UNL1     0.1022
     75 H         -10.976695   0.643315   -4.644587 H        1 UNL1     0.0279
     76 H         -10.282205   1.562066   -3.369095 H        1 UNL1     0.0279
     77 H         -10.100455   2.04405   -5.104018 H        1 UNL1     0.0279
     78 H         -8.072257   2.378558   -5.883544 H        1 UNL1     0.1553
     79 H         -7.052763   2.584676   -4.197018 H        1 UNL1     0.1484
     80 H         -3.480212   3.274252   -3.101181 H        1 UNL1     0.0317
     81 H         -3.961435   3.215149   -4.790813 H        1 UNL1     0.0317
     82 H         -6.110716   4.404241   -4.280566 H        1 UNL1     0.0428
     83 H         -4.700426   5.313331   -3.784239 H        1 UNL1     0.0428
     84 H         -6.752193   3.167583   -0.736426 H        1 UNL1     0.0428
     85 H         -7.423026   3.073121   -2.327081 H        1 UNL1     0.0428
     86 H         -6.020891   1.151243   -1.575247 H        1 UNL1     0.0317
     87 H         -4.633812   2.117487   -1.363736 H        1 UNL1     0.0317
     88 H         -5.629828   6.421339   -1.746897 H        1 UNL1     0.0429
     89 H         -7.124171   5.968605   -2.570429 H        1 UNL1     0.0429
     90 H         -6.426304   5.961155   0.326166 H        1 UNL1     0.0308
     91 H         -8.334664   7.28762   -0.473789 H        1 UNL1     0.0233
     92 H         -9.07438   5.846251   -1.21593 H        1 UNL1     0.0233
     93 H         -8.990073   5.996649   0.526159 H        1 UNL1     0.0233
     94 H         -7.745702   3.928525   0.876628 H        1 UNL1     0.0233
     95 H         -7.712606   3.487811   -0.837725 H        1 UNL1     0.0233
     96 H         -6.19438   3.585094   0.083968 H        1 UNL1     0.0233
     97 H         -3.288328   -3.722511   -9.733663 H        1 UNL1     0.0280
     98 H         -2.709275   -2.223064   -10.407121 H        1 UNL1     0.0280
     99 H         -1.750212   -3.060069   -9.150399 H        1 UNL1     0.0280
     100 H         -5.137704   -0.243903   -10.199481 H        1 UNL1     0.2922
     101 H         -5.750735   -2.743414   0.559987 H        1 UNL1     0.0236
     102 H         -4.036386   -3.315019   0.57829 H        1 UNL1     0.0236
     103 H         -5.117655   -3.740882   -0.712056 H        1 UNL1     0.0236
     104 H         -3.864181   0.147124   1.439643 H        1 UNL1     0.2098
     105 H         -1.241045   0.868055   0.846803 H        1 UNL1     0.0234
     106 H         0.163046   0.139105   1.676415 H        1 UNL1     0.0234
     107 H         0.0   0.0   0.0 H        1 UNL1     0.0234
     108 H         -0.155719   -2.877678   -1.248557 H        1 UNL1     0.2098
     109 H         0.203436   -0.078619   -2.806014 H        1 UNL1     0.0234
     110 H         -0.032531   0.266616   -1.063047 H        1 UNL1     0.0234
     111 H         1.12035   1.166931   -1.984536 H        1 UNL1     0.0234
     112 H         0.405263   2.128236   -0.384174 H        1 UNL1     0.0342
     113 H         0.580168   0.361446   -0.677606 H        1 UNL1     0.0342
     114 H         -0.126897   0.950944   0.829219 H        1 UNL1     0.0342
     115 H         2.821227   -3.799425   -0.397407 H        1 UNL1     0.0234
     116 H         3.240321   -3.757126   1.318214 H        1 UNL1     0.0234
     117 H         1.829702   -4.640666   0.699216 H        1 UNL1     0.0234
     118 H         0.685482   -1.493949   -5.641734 H        1 UNL1     0.0309
     119 H         -0.358488   -0.949609   -6.991504 H        1 UNL1     0.0309
     120 H         -0.492882   -0.259252   -5.389161 H        1 UNL1     0.0309
     121 H         3.676325   -4.00482   -2.809095 H        1 UNL1     0.0524
     122 H         3.979011   -3.078837   -1.33336 H        1 UNL1     0.0524
     123 H         3.372383   -4.749778   -1.216303 H        1 UNL1     0.0524
@<TRIPOS>BOND
     1     1     2    1
     2     1    42    1
     3     2     3    2
     4     3     4    1
     5     4     5    2
     6     5     7    1
     7     6    75    1
     8     6    76    1
     9     6    77    1
    10     7     9   am
    11     9    10    1
    12    10    11    2
    13    10    43    1
    14    11    14    1
    15    11    15    1
    16    12    13   ar
    17    12    27   ar
    18    12    43    1
    19    13    14    1
    20    13    30   ar
    21    14    17    2
    22    15    16    1
    23    16    17    1
    24    16    18    1
    25    16    22    1
    26    18    19    1
    27    19    20    1
    28    20    21    1
    29    21    22    1
    30    23    24    1
    31    23    88    1
    32    23    89    1
    33    24    25    1
    34    24    26    1
    35    24    90    1
    36    25    91    1
    37    25    92    1
    38    25    93    1
    39    26    94    1
    40    26    95    1
    41    26    96    1
    42    27    28   ar
    43    28    29   ar
    44    29    30   ar
    45    29    31    1
    46    30    33    1
    47    31    32    1
    48    32    33    1
    49    32    35    1
    50    34    97    1
    51    34    98    1
    52    34    99    1
    53    35    61    1
    54    36    37    1
    55    36    60    1
    56    37    38    1
    57    38    39    1
    58    39    40    1
    59    40    41    1
    60    41    42    1
    61    45   100    1
    62    47   101    1
    63    47   102    1
    64    47   103    1
    65    48   104    1
    66    49   105    1
    67    49   106    1
    68    49   107    1
    69    50   108    1
    70    51    59    1
    71    52   109    1
    72    52   110    1
    73    52   111    1
    74    53    54    1
    75    54    55    2
    76    54    56    1
    77    56   112    1
    78    56   113    1
    79    56   114    1
    80    57   115    1
    81    57   116    1
    82    57   117    1
    83    58   118    1
    84    58   119    1
    85    58   120    1
    86    59   121    1
    87    59   122    1
    88    59   123    1
    89    60    61    2
    90     1    47    1
    91     1    62    1
    92     2    63    1
    93     3    64    1
    94     4    65    1
    95     5     6    1
    96     7     8    2
    97     9    78    1
    98    15    79    1
    99    18    80    1
   100    18    81    1
   101    19    82    1
   102    19    83    1
   103    20    23    1
   104    21    84    1
   105    21    85    1
   106    22    86    1
   107    22    87    1
   108    27    45    1
   109    28    34    1
   110    32    58    1
   111    33    46    2
   112    36    51    1
   113    36    66    1
   114    37    52    1
   115    37    67    1
   116    38    53    1
   117    38    68    1
   118    42    48    1
   119    42    72    1
   120    43    44    2
   121    60    73    1
   122    61    74    1
   123    39    69    1
   124    39    57    1
   125    40    70    1
   126    40    50    1
   127    41    71    1
   128    41    49    1
