@<TRIPOS>MOLECULE
*****
 123 128 0 0 0
SMALL
GASTEIGER

@<TRIPOS>ATOM
     1 C         5.037171   2.055429   0.643328 C.3        1 UNL1     0.0009
     2 C         6.423045   2.996597   -0.150773 C.2        1 UNL1     -0.0787
     3 C         7.718394   3.01811   -0.797034 C.2        1 UNL1     -0.0649
     4 C         8.513615   4.342325   -1.49017 C.2        1 UNL1     -0.0542
     5 C         9.523116   4.74478   -2.399023 C.2        1 UNL1     0.0115
     6 C         10.707002   4.237358   -3.267505 C.3        1 UNL1     -0.0348
     7 C         9.517958   6.253404   -2.947671 C.2        1 UNL1     0.2441
     8 O         10.273423   7.117772   -2.52498 O.2        1 UNL1     -0.2702
     9 N         8.771958   6.450212   -4.122789 N.am        1 UNL1     -0.2772
     10 C         7.459747   6.729772   -3.817386 C.2        1 UNL1     0.1049
     11 C         6.68355   5.688628   -3.577051 C.2        1 UNL1     0.0801
     12 C         6.025828   8.181516   -2.370441 C.ar        1 UNL1     0.0753
     13 C         5.345333   6.984715   -1.979029 C.ar        1 UNL1     0.0305
     14 C         5.567632   5.717003   -2.670796 C.2        1 UNL1     0.0924
     15 N         6.906033   4.379308   -3.783712 N.pl3        1 UNL1     -0.3170
     16 C         5.679222   3.677312   -3.514654 C.3        1 UNL1     0.1275
     17 N         4.959771   4.544878   -2.510941 N.2        1 UNL1     -0.2557
     18 C         4.843152   3.722835   -4.790043 C.3        1 UNL1     0.0016
     19 C         5.662988   3.13989   -5.930058 C.3        1 UNL1     0.0026
     20 N         6.02812   1.771287   -5.591483 N.3        1 UNL1     -0.3018
     21 C         6.782773   1.619195   -4.345796 C.3        1 UNL1     0.0026
     22 C         5.938779   2.207099   -3.213569 C.3        1 UNL1     0.0016
     23 C         6.548151   1.029967   -6.723144 C.3        1 UNL1     0.0012
     24 C         5.428885   0.735005   -7.734083 C.3        1 UNL1     -0.0339
     25 C         5.473976   1.708869   -8.923037 C.3        1 UNL1     -0.0615
     26 C         5.508808   -0.710794   -8.192403 C.3        1 UNL1     -0.0615
     27 C         5.720414   9.409041   -1.787327 C.ar        1 UNL1     0.1347
     28 C         4.729997   9.570482   -0.834929 C.ar        1 UNL1     0.0342
     29 C         4.107126   8.370866   -0.429814 C.ar        1 UNL1     0.1435
     30 C         4.42783   7.128813   -0.97906 C.ar        1 UNL1     0.0774
     31 O         3.048071   8.375002   0.408871 O.3        1 UNL1     -0.4436
     32 C         2.421309   7.099212   0.207869 C.3        1 UNL1     0.3143
     33 C         3.512747   6.204084   -0.343241 C.2        1 UNL1     0.2504
     34 C         4.17731   10.882231   -0.351244 C.3        1 UNL1     -0.0327
     35 O         2.074352   6.586724   1.500242 O.2        1 UNL1     -0.4528
     36 C         -1.011395   4.439729   0.974256 C.3        1 UNL1     0.0854
     37 C         -1.209736   3.1959   0.025007 C.3        1 UNL1     0.0236
     38 C         -1.727413   1.864824   0.754383 C.3        1 UNL1     0.1131
     39 C         -0.983882   1.33832   2.047529 C.3        1 UNL1     0.0200
     40 C         0.682726   1.312963   2.112447 C.3        1 UNL1     0.0661
     41 C         1.713298   0.662045   0.932686 C.3        1 UNL1     0.0091
     42 C         3.397719   1.169863   0.412829 C.3        1 UNL1     0.0661
     43 C         7.005076   8.087273   -3.4815 C.2        1 UNL1     0.2131
     44 O         7.348344   9.039285   -4.158683 O.2        1 UNL1     -0.2851
     45 O         6.460961   10.517657   -2.192293 O.3        1 UNL1     -0.5056
     46 O         3.615368   5.000771   -0.257443 O.2        1 UNL1     -0.2836
     47 C         5.442744   1.600698   2.071162 C.3        1 UNL1     -0.0566
     48 O         3.947702   -0.206832   0.449508 O.3        1 UNL1     -0.3909
     49 C         0.916949   0.417336   -0.329629 C.3        1 UNL1     -0.0577
     50 O         1.185746   2.555278   2.561163 O.3        1 UNL1     -0.3910
     51 O         -1.141766   4.187795   2.355184 O.3        1 UNL1     -0.3753
     52 C         -0.139354   3.156835   -1.114162 C.3        1 UNL1     -0.0564
     53 O         -2.238496   0.820221   -0.194261 O.3        1 UNL1     -0.4608
     54 C         -2.349173   -0.517708   0.080738 C.2        1 UNL1     0.3042
     55 O         -1.60031   -1.420828   -0.28996 O.2        1 UNL1     -0.2512
     56 C         -3.500747   -0.852468   0.985462 C.3        1 UNL1     0.0332
     57 C         -1.770799   1.903577   3.320093 C.3        1 UNL1     -0.0567
     58 C         1.347153   7.306921   -0.885098 C.3        1 UNL1     0.0210
     59 C         -1.551839   5.311263   3.133339 C.3        1 UNL1     0.0372
     60 C         0.270944   5.172613   0.790824 C.2        1 UNL1     -0.0208
     61 C         1.136389   5.639366   1.691874 C.2        1 UNL1     0.0882
     62 H         4.488843   2.998114   0.759057 H        1 UNL1     0.0365
     63 H         6.078404   4.02328   -0.010721 H        1 UNL1     0.0576
     64 H         8.249212   2.096532   -1.0461 H        1 UNL1     0.0615
     65 H         7.955378   5.20561   -1.117889 H        1 UNL1     0.0622
     66 H         -1.804315   5.141343   0.679193 H        1 UNL1     0.0645
     67 H         -2.08657   3.46467   -0.589391 H        1 UNL1     0.0362
     68 H         -2.709179   2.217453   1.105538 H        1 UNL1     0.0741
     69 H         -1.242918   0.298915   2.199008 H        1 UNL1     0.0359
     70 H         0.829762   0.628954   2.970102 H        1 UNL1     0.0600
     71 H         1.825623   -0.368966   1.321731 H        1 UNL1     0.0348
     72 H         3.241695   1.610763   1.408108 H        1 UNL1     0.0602
     73 H         0.389323   5.417902   -0.235368 H        1 UNL1     0.0628
     74 H         1.118571   5.386747   2.752584 H        1 UNL1     0.1022
     75 H         10.780878   3.124213   -3.217645 H        1 UNL1     0.0279
     76 H         10.636854   4.419784   -4.337491 H        1 UNL1     0.0279
     77 H         11.686772   4.537762   -2.86812 H        1 UNL1     0.0279
     78 H         8.781947   5.599016   -4.68086 H        1 UNL1     0.1553
     79 H         7.61007   4.025236   -4.404918 H        1 UNL1     0.1484
     80 H         3.917857   3.15589   -4.631398 H        1 UNL1     0.0317
     81 H         4.544864   4.749985   -5.025922 H        1 UNL1     0.0317
     82 H         6.555576   3.746914   -6.141533 H        1 UNL1     0.0428
     83 H         5.048736   3.183706   -6.82996 H        1 UNL1     0.0428
     84 H         6.974965   0.576632   -4.073886 H        1 UNL1     0.0428
     85 H         7.784397   2.065189   -4.417601 H        1 UNL1     0.0428
     86 H         6.458741   1.960161   -2.306569 H        1 UNL1     0.0317
     87 H         4.995415   1.65475   -3.12373 H        1 UNL1     0.0317
     88 H         7.309879   1.648428   -7.215658 H        1 UNL1     0.0429
     89 H         7.043964   0.105433   -6.400373 H        1 UNL1     0.0429
     90 H         4.45796   0.837812   -7.235137 H        1 UNL1     0.0308
     91 H         6.492812   1.8231   -9.305172 H        1 UNL1     0.0233
     92 H         4.824717   1.362786   -9.730686 H        1 UNL1     0.0233
     93 H         5.120436   2.711858   -8.654973 H        1 UNL1     0.0233
     94 H         5.002386   -0.829995   -9.156334 H        1 UNL1     0.0233
     95 H         6.554241   -1.004342   -8.322261 H        1 UNL1     0.0233
     96 H         5.040001   -1.38489   -7.470057 H        1 UNL1     0.0233
     97 H         3.325307   10.747016   0.308331 H        1 UNL1     0.0280
     98 H         4.91556   11.455073   0.225032 H        1 UNL1     0.0280
     99 H         3.853743   11.487035   -1.214153 H        1 UNL1     0.0280
     100 H         5.944951   11.269637   -2.424418 H        1 UNL1     0.2922
     101 H         4.54924   1.374534   2.652674 H        1 UNL1     0.0236
     102 H         6.092191   2.312618   2.579464 H        1 UNL1     0.0236
     103 H         6.014632   0.65784   2.058706 H        1 UNL1     0.0236
     104 H         4.275974   -0.369267   1.3555 H        1 UNL1     0.2098
     105 H         0.688511   1.315594   -0.897749 H        1 UNL1     0.0234
     106 H         1.327578   -0.350237   -0.985482 H        1 UNL1     0.0234
     107 H         0.0   -0.0   0.0 H        1 UNL1     0.0234
     108 H         1.00509   3.211458   1.860763 H        1 UNL1     0.2098
     109 H         0.885855   3.116333   -0.720441 H        1 UNL1     0.0234
     110 H         -0.29309   2.3345   -1.82118 H        1 UNL1     0.0234
     111 H         -0.181834   4.057856   -1.740503 H        1 UNL1     0.0234
     112 H         -3.51957   -1.928896   1.181155 H        1 UNL1     0.0342
     113 H         -3.468818   -0.286791   1.915426 H        1 UNL1     0.0342
     114 H         -4.432595   -0.588106   0.466871 H        1 UNL1     0.0342
     115 H         -2.844601   1.67628   3.27035 H        1 UNL1     0.0234
     116 H         -1.399312   1.526817   4.275132 H        1 UNL1     0.0234
     117 H         -1.788497   3.005795   3.372466 H        1 UNL1     0.0234
     118 H         0.325621   7.314804   -0.46627 H        1 UNL1     0.0309
     119 H         1.501066   8.218652   -1.470983 H        1 UNL1     0.0309
     120 H         1.317662   6.483736   -1.607318 H        1 UNL1     0.0309
     121 H         -1.185177   5.160774   4.148361 H        1 UNL1     0.0524
     122 H         -1.122343   6.256596   2.761968 H        1 UNL1     0.0524
     123 H         -2.635117   5.392524   3.134311 H        1 UNL1     0.0524
@<TRIPOS>BOND
     1     1     2    1
     2     1    42    1
     3     2     3    2
     4     3     4    1
     5     4     5    2
     6     5     7    1
     7     6    75    1
     8     6    76    1
     9     6    77    1
    10     7     9   am
    11     9    10    1
    12    10    11    2
    13    10    43    1
    14    11    14    1
    15    11    15    1
    16    12    13   ar
    17    12    27   ar
    18    12    43    1
    19    13    14    1
    20    13    30   ar
    21    14    17    2
    22    15    16    1
    23    16    17    1
    24    16    18    1
    25    16    22    1
    26    18    19    1
    27    19    20    1
    28    20    21    1
    29    21    22    1
    30    23    24    1
    31    23    88    1
    32    23    89    1
    33    24    25    1
    34    24    26    1
    35    24    90    1
    36    25    91    1
    37    25    92    1
    38    25    93    1
    39    26    94    1
    40    26    95    1
    41    26    96    1
    42    27    28   ar
    43    28    29   ar
    44    29    30   ar
    45    29    31    1
    46    30    33    1
    47    31    32    1
    48    32    33    1
    49    32    35    1
    50    34    97    1
    51    34    98    1
    52    34    99    1
    53    35    61    1
    54    36    37    1
    55    36    60    1
    56    37    38    1
    57    38    39    1
    58    39    40    1
    59    40    41    1
    60    41    42    1
    61    45   100    1
    62    47   101    1
    63    47   102    1
    64    47   103    1
    65    48   104    1
    66    49   105    1
    67    49   106    1
    68    49   107    1
    69    50   108    1
    70    51    59    1
    71    52   109    1
    72    52   110    1
    73    52   111    1
    74    53    54    1
    75    54    55    2
    76    54    56    1
    77    56   112    1
    78    56   113    1
    79    56   114    1
    80    57   115    1
    81    57   116    1
    82    57   117    1
    83    58   118    1
    84    58   119    1
    85    58   120    1
    86    59   121    1
    87    59   122    1
    88    59   123    1
    89    60    61    2
    90     1    47    1
    91     1    62    1
    92     2    63    1
    93     3    64    1
    94     4    65    1
    95     5     6    1
    96     7     8    2
    97     9    78    1
    98    15    79    1
    99    18    80    1
   100    18    81    1
   101    19    82    1
   102    19    83    1
   103    20    23    1
   104    21    84    1
   105    21    85    1
   106    22    86    1
   107    22    87    1
   108    27    45    1
   109    28    34    1
   110    32    58    1
   111    33    46    2
   112    36    51    1
   113    36    66    1
   114    37    52    1
   115    37    67    1
   116    38    53    1
   117    38    68    1
   118    42    48    1
   119    42    72    1
   120    43    44    2
   121    60    73    1
   122    61    74    1
   123    39    69    1
   124    39    57    1
   125    40    70    1
   126    40    50    1
   127    41    71    1
   128    41    49    1
