@<TRIPOS>MOLECULE
*****
 123 128 0 0 0
SMALL
GASTEIGER

@<TRIPOS>ATOM
     1 C         2.833486   1.132449   -2.80779 C.3        1 UNL1     0.0009
     2 C         2.532296   1.973952   -4.432042 C.2        1 UNL1     -0.0787
     3 C         2.38876   1.911712   -5.871337 C.2        1 UNL1     -0.0649
     4 C         1.950115   3.159456   -6.928258 C.2        1 UNL1     -0.0542
     5 C         1.438449   3.466569   -8.213154 C.2        1 UNL1     0.0115
     6 C         1.077822   2.864335   -9.599006 C.3        1 UNL1     -0.0348
     7 C         0.839592   4.931694   -8.481046 C.2        1 UNL1     0.2441
     8 O         1.453769   5.801762   -9.082956 O.2        1 UNL1     -0.2702
     9 N         -0.533095   5.065662   -8.209139 N.am        1 UNL1     -0.2772
     10 C         -0.730553   5.404238   -6.890162 C.2        1 UNL1     0.1049
     11 C         -0.723559   4.40585   -6.025642 C.2        1 UNL1     0.0801
     12 C         0.027527   6.996528   -5.11611 C.ar        1 UNL1     0.0753
     13 C         0.218284   5.850955   -4.279521 C.ar        1 UNL1     0.0305
     14 C         -0.276479   4.531186   -4.664839 C.2        1 UNL1     0.0924
     15 N         -0.763333   3.079218   -6.237762 N.pl3        1 UNL1     -0.3170
     16 C         -0.908919   2.434085   -4.959928 C.3        1 UNL1     0.1275
     17 N         -0.277316   3.39158   -3.979109 N.2        1 UNL1     -0.2557
     18 C         -2.398639   2.412673   -4.63133 C.3        1 UNL1     0.0016
     19 C         -3.137775   1.726313   -5.768949 C.3        1 UNL1     0.0026
     20 N         -2.614809   0.37536   -5.918817 N.3        1 UNL1     -0.3018
     21 C         -1.175732   0.290761   -6.176249 C.3        1 UNL1     0.0026
     22 C         -0.452731   0.982209   -5.01907 C.3        1 UNL1     0.0016
     23 C         -3.443815   -0.459616   -6.765107 C.3        1 UNL1     0.0012
     24 C         -4.810188   0.202558   -7.002397 C.3        1 UNL1     -0.0339
     25 C         -4.704058   1.736211   -6.975872 C.3        1 UNL1     -0.0615
     26 C         -5.409996   -0.293799   -8.306483 C.3        1 UNL1     -0.0615
     27 C         0.393638   8.270884   -4.689381 C.ar        1 UNL1     0.1347
     28 C         0.92088   8.528546   -3.436514 C.ar        1 UNL1     0.0342
     29 C         1.14507   7.379474   -2.648773 C.ar        1 UNL1     0.1435
     30 C         0.816812   6.092607   -3.077072 C.ar        1 UNL1     0.0774
     31 O         1.550699   7.474171   -1.363664 O.3        1 UNL1     -0.4436
     32 C         1.212335   6.205997   -0.782184 C.3        1 UNL1     0.3143
     33 C         1.136811   5.242546   -1.949348 C.2        1 UNL1     0.2504
     34 C         1.101549   9.886947   -2.818287 C.3        1 UNL1     -0.0327
     35 O         2.323601   5.797346   0.024873 O.2        1 UNL1     -0.4528
     36 C         0.856862   3.708653   2.834522 C.3        1 UNL1     0.0854
     37 C         -0.029036   2.406512   2.750049 C.3        1 UNL1     0.0236
     38 C         0.542497   1.146467   3.560839 C.3        1 UNL1     0.1131
     39 C         2.043031   0.692279   3.350176 C.3        1 UNL1     0.0200
     40 C         2.697642   0.623311   1.817477 C.3        1 UNL1     0.0661
     41 C         2.000196   -0.139767   0.472526 C.3        1 UNL1     0.0091
     42 C         2.08548   0.280595   -1.311129 C.3        1 UNL1     0.0661
     43 C         -0.655501   6.794862   -6.418057 C.2        1 UNL1     0.2131
     44 O         -1.218957   7.685753   -7.027621 O.2        1 UNL1     -0.2851
     45 O         0.216568   9.325826   -5.582232 O.3        1 UNL1     -0.5056
     46 O         1.321278   4.045959   -1.951847 O.2        1 UNL1     -0.2836
     47 C         4.335454   0.769233   -2.658967 C.3        1 UNL1     -0.0566
     48 O         2.392983   -1.105336   -1.739794 O.3        1 UNL1     -0.3909
     49 C         0.553181   -0.450768   0.783848 C.3        1 UNL1     -0.0577
     50 O         3.224997   1.87938   1.440767 O.3        1 UNL1     -0.3910
     51 O         2.11305   3.559823   3.456835 O.3        1 UNL1     -0.3753
     52 C         -0.708998   2.255211   1.350153 C.3        1 UNL1     -0.0564
     53 O         -0.46529   0.052071   3.758297 O.3        1 UNL1     -0.4608
     54 C         -1.807771   0.151677   3.501877 C.2        1 UNL1     0.3042
     55 O         -2.526387   -0.680381   2.949511 O.2        1 UNL1     -0.2512
     56 C         -2.427914   1.415725   4.025633 C.3        1 UNL1     0.0332
     57 C         2.918532   1.369511   4.504745 C.3        1 UNL1     -0.0567
     58 C         -0.201012   6.366214   -0.175297 C.3        1 UNL1     0.0210
     59 C         3.190585   4.224142   2.798457 C.3        1 UNL1     0.0372
     60 C         1.100332   4.389085   1.533409 C.2        1 UNL1     -0.0208
     61 C         2.222343   4.893678   1.018411 C.2        1 UNL1     0.0882
     62 H         2.69326   2.09649   -2.304131 H        1 UNL1     0.0365
     63 H         2.482447   3.017572   -4.114488 H        1 UNL1     0.0576
     64 H         2.397173   0.959704   -6.406797 H        1 UNL1     0.0615
     65 H         2.050195   4.062935   -6.320646 H        1 UNL1     0.0622
     66 H         0.260031   4.410109   3.434354 H        1 UNL1     0.0645
     67 H         -0.92919   2.656048   3.338279 H        1 UNL1     0.0362
     68 H         0.501097   1.55158   4.58343 H        1 UNL1     0.0741
     69 H         2.150923   -0.325712   3.700119 H        1 UNL1     0.0359
     70 H         3.58868   -0.001706   2.018636 H        1 UNL1     0.0600
     71 H         2.461296   -1.143199   0.55894 H        1 UNL1     0.0348
     72 H         2.933645   0.795753   -0.837268 H        1 UNL1     0.0602
     73 H         0.171204   4.55696   1.047829 H        1 UNL1     0.0628
     74 H         3.219846   4.718043   1.422612 H        1 UNL1     0.1022
     75 H         1.213449   1.755917   -9.592062 H        1 UNL1     0.0279
     76 H         0.044349   2.971873   -9.920623 H        1 UNL1     0.0279
     77 H         1.781853   3.163949   -10.389115 H        1 UNL1     0.0279
     78 H         -1.002136   4.176871   -8.370778 H        1 UNL1     0.1553
     79 H         -1.07255   2.661443   -7.096122 H        1 UNL1     0.1484
     80 H         -2.547644   1.885564   -3.681214 H        1 UNL1     0.0317
     81 H         -2.782753   3.42858   -4.489764 H        1 UNL1     0.0317
     82 H         -3.051951   2.290557   -6.709255 H        1 UNL1     0.0428
     83 H         -4.198219   1.72357   -5.514978 H        1 UNL1     0.0428
     84 H         -0.79486   -0.734866   -6.205176 H        1 UNL1     0.0428
     85 H         -0.911741   0.701262   -7.160684 H        1 UNL1     0.0428
     86 H         0.592274   0.785674   -5.171799 H        1 UNL1     0.0317
     87 H         -0.673177   0.465267   -4.077119 H        1 UNL1     0.0317
     88 H         -2.938025   -0.57382   -7.7328 H        1 UNL1     0.0429
     89 H         -3.559528   -1.465769   -6.341974 H        1 UNL1     0.0429
     90 H         -5.504031   -0.113127   -6.214274 H        1 UNL1     0.0308
     91 H         -4.946052   2.134575   -5.986 H        1 UNL1     0.0233
     92 H         -3.698601   2.058757   -7.256281 H        1 UNL1     0.0233
     93 H         -5.388161   2.21454   -7.687237 H        1 UNL1     0.0233
     94 H         -5.02599   0.294478   -9.146903 H        1 UNL1     0.0233
     95 H         -5.132432   -1.338618   -8.471628 H        1 UNL1     0.0233
     96 H         -6.500749   -0.215206   -8.299459 H        1 UNL1     0.0233
     97 H         2.141329   10.091753   -2.581341 H        1 UNL1     0.0280
     98 H         0.782097   10.693587   -3.490996 H        1 UNL1     0.0280
     99 H         0.516047   9.949131   -1.886399 H        1 UNL1     0.0280
     100 H         -0.07205   10.129405   -5.186527 H        1 UNL1     0.2922
     101 H         4.528591   0.410643   -1.648142 H        1 UNL1     0.0236
     102 H         5.003114   1.583486   -2.938618 H        1 UNL1     0.0236
     103 H         4.625541   -0.069477   -3.313648 H        1 UNL1     0.0236
     104 H         1.638045   -1.423699   -2.272414 H        1 UNL1     0.2098
     105 H         0.313644   -1.511121   0.79305 H        1 UNL1     0.0234
     106 H         0.166673   0.031639   1.681524 H        1 UNL1     0.0234
     107 H         -0.0   0.0   0.0 H        1 UNL1     0.0234
     108 H         3.819034   1.728384   0.680446 H        1 UNL1     0.2098
     109 H         -1.685941   2.756543   1.305864 H        1 UNL1     0.0234
     110 H         -0.079263   2.60632   0.525593 H        1 UNL1     0.0234
     111 H         -0.903913   1.202301   1.106565 H        1 UNL1     0.0234
     112 H         -3.49826   1.426998   3.798526 H        1 UNL1     0.0342
     113 H         -2.253514   1.545888   5.092631 H        1 UNL1     0.0342
     114 H         -1.964507   2.265942   3.506451 H        1 UNL1     0.0342
     115 H         3.012733   0.715591   5.382642 H        1 UNL1     0.0234
     116 H         3.927199   1.646891   4.192173 H        1 UNL1     0.0234
     117 H         2.443721   2.259682   4.95206 H        1 UNL1     0.0234
     118 H         -0.382826   5.65156   0.64642 H        1 UNL1     0.0309
     119 H         -0.402819   7.381171   0.181548 H        1 UNL1     0.0309
     120 H         -0.995436   6.133495   -0.892819 H        1 UNL1     0.0309
     121 H         3.97181   4.397967   3.537935 H        1 UNL1     0.0524
     122 H         3.627736   3.61343   1.991012 H        1 UNL1     0.0524
     123 H         2.851667   5.168567   2.382174 H        1 UNL1     0.0524
@<TRIPOS>BOND
     1     1     2    1
     2     1    42    1
     3     2     3    2
     4     3     4    1
     5     4     5    2
     6     5     7    1
     7     6    75    1
     8     6    76    1
     9     6    77    1
    10     7     9   am
    11     9    10    1
    12    10    11    2
    13    10    43    1
    14    11    14    1
    15    11    15    1
    16    12    13   ar
    17    12    27   ar
    18    12    43    1
    19    13    14    1
    20    13    30   ar
    21    14    17    2
    22    15    16    1
    23    16    17    1
    24    16    18    1
    25    16    22    1
    26    18    19    1
    27    19    20    1
    28    20    21    1
    29    21    22    1
    30    23    24    1
    31    23    88    1
    32    23    89    1
    33    24    25    1
    34    24    26    1
    35    24    90    1
    36    25    91    1
    37    25    92    1
    38    25    93    1
    39    26    94    1
    40    26    95    1
    41    26    96    1
    42    27    28   ar
    43    28    29   ar
    44    29    30   ar
    45    29    31    1
    46    30    33    1
    47    31    32    1
    48    32    33    1
    49    32    35    1
    50    34    97    1
    51    34    98    1
    52    34    99    1
    53    35    61    1
    54    36    37    1
    55    36    60    1
    56    37    38    1
    57    38    39    1
    58    39    40    1
    59    40    41    1
    60    41    42    1
    61    45   100    1
    62    47   101    1
    63    47   102    1
    64    47   103    1
    65    48   104    1
    66    49   105    1
    67    49   106    1
    68    49   107    1
    69    50   108    1
    70    51    59    1
    71    52   109    1
    72    52   110    1
    73    52   111    1
    74    53    54    1
    75    54    55    2
    76    54    56    1
    77    56   112    1
    78    56   113    1
    79    56   114    1
    80    57   115    1
    81    57   116    1
    82    57   117    1
    83    58   118    1
    84    58   119    1
    85    58   120    1
    86    59   121    1
    87    59   122    1
    88    59   123    1
    89    60    61    2
    90     1    47    1
    91     1    62    1
    92     2    63    1
    93     3    64    1
    94     4    65    1
    95     5     6    1
    96     7     8    2
    97     9    78    1
    98    15    79    1
    99    18    80    1
   100    18    81    1
   101    19    82    1
   102    19    83    1
   103    20    23    1
   104    21    84    1
   105    21    85    1
   106    22    86    1
   107    22    87    1
   108    27    45    1
   109    28    34    1
   110    32    58    1
   111    33    46    2
   112    36    51    1
   113    36    66    1
   114    37    52    1
   115    37    67    1
   116    38    53    1
   117    38    68    1
   118    42    48    1
   119    42    72    1
   120    43    44    2
   121    60    73    1
   122    61    74    1
   123    39    69    1
   124    39    57    1
   125    40    70    1
   126    40    50    1
   127    41    71    1
   128    41    49    1
