@<TRIPOS>MOLECULE
*****
 123 128 0 0 0
SMALL
GASTEIGER

@<TRIPOS>ATOM
     1 C         0.02485   -1.060269   4.062293 C.3        1 UNL1     0.0009
     2 C         1.357361   -0.850882   5.334146 C.2        1 UNL1     -0.0787
     3 C         2.535537   -1.348517   6.012605 C.2        1 UNL1     -0.0649
     4 C         3.493847   -0.548142   7.15602 C.2        1 UNL1     -0.0542
     5 C         4.76188   -0.511523   7.786757 C.2        1 UNL1     0.0115
     6 C         6.094613   -1.287235   7.974947 C.3        1 UNL1     -0.0348
     7 C         5.213138   0.828585   8.546669 C.2        1 UNL1     0.2441
     8 O         5.177169   0.947705   9.76365 O.2        1 UNL1     -0.2702
     9 N         5.896185   1.759084   7.744316 N.am        1 UNL1     -0.2772
     10 C         5.00486   2.605009   7.125225 C.2        1 UNL1     0.1049
     11 C         4.449426   2.154065   6.015106 C.2        1 UNL1     0.0801
     12 C         3.024964   4.068632   7.566987 C.ar        1 UNL1     0.0753
     13 C         2.384264   3.397399   6.477236 C.ar        1 UNL1     0.0305
     14 C         3.124982   2.510114   5.583304 C.2        1 UNL1     0.0924
     15 N         4.76287   1.083341   5.265553 N.pl3        1 UNL1     -0.3170
     16 C         3.963641   1.13459   4.070203 C.3        1 UNL1     0.1275
     17 N         2.722278   1.889988   4.477773 N.2        1 UNL1     -0.2557
     18 C         4.695981   2.029144   3.074637 C.3        1 UNL1     0.0016
     19 C         6.099012   1.480794   2.868708 C.3        1 UNL1     0.0026
     20 N         5.999351   0.115519   2.371598 N.3        1 UNL1     -0.3018
     21 C         5.257166   -0.807183   3.233081 C.3        1 UNL1     0.0026
     22 C         3.849567   -0.239227   3.422777 C.3        1 UNL1     0.0016
     23 C         7.257465   -0.392233   1.861717 C.3        1 UNL1     0.0012
     24 C         8.087046   -1.013578   2.99639 C.3        1 UNL1     -0.0339
     25 C         9.592805   -0.950195   2.691873 C.3        1 UNL1     -0.0615
     26 C         7.754479   -0.337462   4.315119 C.3        1 UNL1     -0.0615
     27 C         2.341947   5.004627   8.33998 C.ar        1 UNL1     0.1347
     28 C         1.032993   5.37983   8.095207 C.ar        1 UNL1     0.0342
     29 C         0.407308   4.670315   7.048177 C.ar        1 UNL1     0.1435
     30 C         1.067903   3.704086   6.288417 C.ar        1 UNL1     0.0774
     31 O         -0.830303   4.997265   6.616404 O.3        1 UNL1     -0.4436
     32 C         -0.921247   4.419894   5.305204 C.3        1 UNL1     0.3143
     33 C         0.095806   3.296628   5.295557 C.2        1 UNL1     0.2504
     34 C         0.319942   6.548537   8.71632 C.3        1 UNL1     -0.0327
     35 O         -2.214523   3.81265   5.195919 O.2        1 UNL1     -0.4528
     36 C         -3.155393   4.021591   1.524517 C.3        1 UNL1     0.0854
     37 C         -2.385365   3.465405   0.265455 C.3        1 UNL1     0.0236
     38 C         -3.245222   2.495094   -0.678413 C.3        1 UNL1     0.1131
     39 C         -4.026921   1.274297   -0.045268 C.3        1 UNL1     0.0200
     40 C         -3.301253   0.31369   1.109322 C.3        1 UNL1     0.0661
     41 C         -1.76282   -0.39125   0.991458 C.3        1 UNL1     0.0091
     42 C         -0.523425   -0.76728   2.290652 C.3        1 UNL1     0.0661
     43 C         4.46736   3.800991   7.790864 C.2        1 UNL1     0.2131
     44 O         5.206955   4.55835   8.392649 O.2        1 UNL1     -0.2851
     45 O         3.024595   5.578732   9.410416 O.3        1 UNL1     -0.5056
     46 O         0.09267   2.282939   4.633531 O.2        1 UNL1     -0.2836
     47 C         -1.035865   -2.080836   4.555556 C.3        1 UNL1     -0.0566
     48 O         -0.269652   -2.146861   1.809534 O.3        1 UNL1     -0.3909
     49 C         -1.017482   0.252912   -0.156157 C.3        1 UNL1     -0.0577
     50 O         -3.486384   0.856355   2.401206 O.3        1 UNL1     -0.3910
     51 O         -4.43044   3.468519   1.760735 O.3        1 UNL1     -0.3753
     52 C         -0.876489   3.198832   0.577192 C.3        1 UNL1     -0.0564
     53 O         -2.6266   2.265522   -2.026348 O.3        1 UNL1     -0.4608
     54 C         -2.894154   1.206648   -2.854074 C.2        1 UNL1     0.3042
     55 O         -2.992377   0.020656   -2.541641 O.2        1 UNL1     -0.2512
     56 C         -3.14032   1.606089   -4.281155 C.3        1 UNL1     0.0332
     57 C         -5.531141   1.749479   0.218742 C.3        1 UNL1     -0.0567
     58 C         -0.465002   5.514521   4.312651 C.3        1 UNL1     0.0210
     59 C         -5.286728   4.264233   2.578951 C.3        1 UNL1     0.0372
     60 C         -2.406303   3.936859   2.807811 C.2        1 UNL1     -0.0208
     61 C         -2.804818   3.538759   4.016715 C.2        1 UNL1     0.0882
     62 H         -0.35387   -0.064621   4.323002 H        1 UNL1     0.0365
     63 H         1.051096   0.089589   5.796948 H        1 UNL1     0.0576
     64 H         3.023305   -2.276622   5.706318 H        1 UNL1     0.0615
     65 H         2.885627   0.311649   7.449807 H        1 UNL1     0.0622
     66 H         -3.281447   5.094019   1.319442 H        1 UNL1     0.0645
     67 H         -2.260154   4.349085   -0.384154 H        1 UNL1     0.0362
     68 H         -4.023274   3.200685   -1.007501 H        1 UNL1     0.0741
     69 H         -4.261155   0.566664   -0.829358 H        1 UNL1     0.0359
     70 H         -3.975396   -0.563606   1.07861 H        1 UNL1     0.0600
     71 H         -2.032573   -1.371597   0.552016 H        1 UNL1     0.0348
     72 H         -1.484161   -0.650385   2.8128 H        1 UNL1     0.0602
     73 H         -1.44988   4.380872   2.683897 H        1 UNL1     0.0628
     74 H         -3.744349   3.022764   4.217383 H        1 UNL1     0.1022
     75 H         6.00527   -2.324066   7.569936 H        1 UNL1     0.0279
     76 H         6.960206   -0.901088   7.441365 H        1 UNL1     0.0279
     77 H         6.325153   -1.486423   9.031771 H        1 UNL1     0.0279
     78 H         6.41076   1.269434   7.015253 H        1 UNL1     0.1553
     79 H         5.648936   0.614231   5.30746 H        1 UNL1     0.1484
     80 H         4.133033   2.052623   2.133731 H        1 UNL1     0.0317
     81 H         4.743304   3.061517   3.437428 H        1 UNL1     0.0317
     82 H         6.692425   1.522832   3.793913 H        1 UNL1     0.0428
     83 H         6.604084   2.134466   2.156903 H        1 UNL1     0.0428
     84 H         5.128539   -1.804084   2.80012 H        1 UNL1     0.0428
     85 H         5.781751   -0.9934   4.18042 H        1 UNL1     0.0428
     86 H         3.298083   -1.000046   3.943361 H        1 UNL1     0.0317
     87 H         3.338574   -0.173039   2.454479 H        1 UNL1     0.0317
     88 H         7.036154   -1.173196   1.12252 H        1 UNL1     0.0429
     89 H         7.82257   0.391974   1.34167 H        1 UNL1     0.0429
     90 H         7.799272   -2.064614   3.117722 H        1 UNL1     0.0308
     91 H         10.039641   -0.031817   3.084329 H        1 UNL1     0.0233
     92 H         10.110095   -1.812061   3.119902 H        1 UNL1     0.0233
     93 H         9.802466   -0.97126   1.615568 H        1 UNL1     0.0233
     94 H         8.637026   0.178902   4.707951 H        1 UNL1     0.0233
     95 H         6.967296   0.406767   4.165358 H        1 UNL1     0.0233
     96 H         7.417536   -1.062376   5.061401 H        1 UNL1     0.0233
     97 H         0.107443   6.383861   9.76844 H        1 UNL1     0.0280
     98 H         0.916446   7.469056   8.670691 H        1 UNL1     0.0280
     99 H         -0.635407   6.718348   8.193282 H        1 UNL1     0.0280
     100 H         3.516814   6.350562   9.192193 H        1 UNL1     0.2922
     101 H         -1.774763   -2.250516   3.77268 H        1 UNL1     0.0236
     102 H         -1.498565   -1.795602   5.499767 H        1 UNL1     0.0236
     103 H         -0.597176   -3.074469   4.746445 H        1 UNL1     0.0236
     104 H         -0.90627   -2.737366   2.257855 H        1 UNL1     0.2098
     105 H         -1.304027   -0.112346   -1.139158 H        1 UNL1     0.0234
     106 H         -1.01619   1.342761   -0.143713 H        1 UNL1     0.0234
     107 H         0.0   0.0   0.0 H        1 UNL1     0.0234
     108 H         -2.817868   0.449376   2.985348 H        1 UNL1     0.2098
     109 H         -0.741816   2.469603   1.388241 H        1 UNL1     0.0234
     110 H         -0.305406   2.879502   -0.301236 H        1 UNL1     0.0234
     111 H         -0.364605   4.111569   0.910106 H        1 UNL1     0.0234
     112 H         -4.189136   1.888917   -4.412831 H        1 UNL1     0.0342
     113 H         -2.476332   2.407115   -4.602591 H        1 UNL1     0.0342
     114 H         -2.943831   0.73424   -4.920245 H        1 UNL1     0.0342
     115 H         -5.986759   2.18252   -0.68241 H        1 UNL1     0.0234
     116 H         -6.192102   0.955358   0.57166 H        1 UNL1     0.0234
     117 H         -5.608047   2.595037   0.923765 H        1 UNL1     0.0234
     118 H         0.114284   5.095787   3.471166 H        1 UNL1     0.0309
     119 H         -1.295018   6.107753   3.915975 H        1 UNL1     0.0309
     120 H         0.229592   6.230064   4.766129 H        1 UNL1     0.0309
     121 H         -5.196727   3.900229   3.602062 H        1 UNL1     0.0524
     122 H         -4.99602   5.327965   2.578274 H        1 UNL1     0.0524
     123 H         -6.315385   4.179629   2.240126 H        1 UNL1     0.0524
@<TRIPOS>BOND
     1     1     2    1
     2     1    42    1
     3     2     3    2
     4     3     4    1
     5     4     5    2
     6     5     7    1
     7     6    75    1
     8     6    76    1
     9     6    77    1
    10     7     9   am
    11     9    10    1
    12    10    11    2
    13    10    43    1
    14    11    14    1
    15    11    15    1
    16    12    13   ar
    17    12    27   ar
    18    12    43    1
    19    13    14    1
    20    13    30   ar
    21    14    17    2
    22    15    16    1
    23    16    17    1
    24    16    18    1
    25    16    22    1
    26    18    19    1
    27    19    20    1
    28    20    21    1
    29    21    22    1
    30    23    24    1
    31    23    88    1
    32    23    89    1
    33    24    25    1
    34    24    26    1
    35    24    90    1
    36    25    91    1
    37    25    92    1
    38    25    93    1
    39    26    94    1
    40    26    95    1
    41    26    96    1
    42    27    28   ar
    43    28    29   ar
    44    29    30   ar
    45    29    31    1
    46    30    33    1
    47    31    32    1
    48    32    33    1
    49    32    35    1
    50    34    97    1
    51    34    98    1
    52    34    99    1
    53    35    61    1
    54    36    37    1
    55    36    60    1
    56    37    38    1
    57    38    39    1
    58    39    40    1
    59    40    41    1
    60    41    42    1
    61    45   100    1
    62    47   101    1
    63    47   102    1
    64    47   103    1
    65    48   104    1
    66    49   105    1
    67    49   106    1
    68    49   107    1
    69    50   108    1
    70    51    59    1
    71    52   109    1
    72    52   110    1
    73    52   111    1
    74    53    54    1
    75    54    55    2
    76    54    56    1
    77    56   112    1
    78    56   113    1
    79    56   114    1
    80    57   115    1
    81    57   116    1
    82    57   117    1
    83    58   118    1
    84    58   119    1
    85    58   120    1
    86    59   121    1
    87    59   122    1
    88    59   123    1
    89    60    61    2
    90     1    47    1
    91     1    62    1
    92     2    63    1
    93     3    64    1
    94     4    65    1
    95     5     6    1
    96     7     8    2
    97     9    78    1
    98    15    79    1
    99    18    80    1
   100    18    81    1
   101    19    82    1
   102    19    83    1
   103    20    23    1
   104    21    84    1
   105    21    85    1
   106    22    86    1
   107    22    87    1
   108    27    45    1
   109    28    34    1
   110    32    58    1
   111    33    46    2
   112    36    51    1
   113    36    66    1
   114    37    52    1
   115    37    67    1
   116    38    53    1
   117    38    68    1
   118    42    48    1
   119    42    72    1
   120    43    44    2
   121    60    73    1
   122    61    74    1
   123    39    69    1
   124    39    57    1
   125    40    70    1
   126    40    50    1
   127    41    71    1
   128    41    49    1
