@<TRIPOS>MOLECULE
*****
 123 128 0 0 0
SMALL
GASTEIGER

@<TRIPOS>ATOM
     1 C         0.904804   -3.304637   -4.246424 C.3        1 UNL1     0.0009
     2 C         0.201169   -4.683867   -5.266061 C.2        1 UNL1     -0.0787
     3 C         0.189511   -6.078142   -5.655812 C.2        1 UNL1     -0.0649
     4 C         -0.902745   -6.861828   -6.684973 C.2        1 UNL1     -0.0542
     5 C         -1.439551   -8.114732   -7.071171 C.2        1 UNL1     0.0115
     6 C         -1.274225   -9.65224   -6.922648 C.3        1 UNL1     -0.0348
     7 C         -2.826006   -8.149956   -7.879558 C.2        1 UNL1     0.2441
     8 O         -2.887347   -8.330954   -9.087864 O.2        1 UNL1     -0.2702
     9 N         -3.975882   -8.220185   -7.07395 N.am        1 UNL1     -0.2772
     10 C         -4.397821   -6.956971   -6.728145 C.2        1 UNL1     0.1049
     11 C         -3.788501   -6.401944   -5.696208 C.2        1 UNL1     0.0801
     12 C         -4.907879   -4.703964   -7.687903 C.ar        1 UNL1     0.0753
     13 C         -4.062225   -4.164314   -6.666994 C.ar        1 UNL1     0.0305
     14 C         -3.581182   -4.985813   -5.558487 C.2        1 UNL1     0.0924
     15 N         -2.96108   -6.945304   -4.786998 N.pl3        1 UNL1     -0.3170
     16 C         -2.71179   -5.955579   -3.772821 C.3        1 UNL1     0.1275
     17 N         -2.880183   -4.635123   -4.48399 N.2        1 UNL1     -0.2557
     18 C         -3.854282   -6.042737   -2.765439 C.3        1 UNL1     0.0016
     19 C         -3.935575   -7.46877   -2.244468 C.3        1 UNL1     0.0026
     20 N         -2.663419   -7.813726   -1.625071 N.3        1 UNL1     -0.3018
     21 C         -1.494808   -7.70024   -2.500194 C.3        1 UNL1     0.0026
     22 C         -1.429947   -6.258896   -3.008344 C.3        1 UNL1     0.0016
     23 C         -2.730375   -9.029263   -0.838541 C.3        1 UNL1     0.0012
     24 C         -3.561421   -8.802239   0.434086 C.3        1 UNL1     -0.0339
     25 C         -4.649533   -7.738685   0.212903 C.3        1 UNL1     -0.0615
     26 C         -4.153609   -10.117086   0.910816 C.3        1 UNL1     -0.0615
     27 C         -5.460229   -3.88886   -8.67311 C.ar        1 UNL1     0.1347
     28 C         -5.271731   -2.518982   -8.717304 C.ar        1 UNL1     0.0342
     29 C         -4.396201   -2.017028   -7.731073 C.ar        1 UNL1     0.1435
     30 C         -3.806739   -2.8269   -6.759547 C.ar        1 UNL1     0.0774
     31 O         -4.197982   -0.68997   -7.574122 O.3        1 UNL1     -0.4436
     32 C         -3.669359   -0.556817   -6.246078 C.3        1 UNL1     0.3143
     33 C         -3.062977   -1.90761   -5.923791 C.2        1 UNL1     0.2504
     34 C         -6.027943   -1.552482   -9.585705 C.3        1 UNL1     -0.0327
     35 O         -2.588115   0.381304   -6.310058 O.2        1 UNL1     -0.4528
     36 C         -2.490554   2.089459   -2.921729 C.3        1 UNL1     0.0854
     37 C         -2.333102   1.450895   -1.488214 C.3        1 UNL1     0.0236
     38 C         -1.121005   2.036726   -0.616796 C.3        1 UNL1     0.1131
     39 C         0.329454   2.116372   -1.242969 C.3        1 UNL1     0.0200
     40 C         0.938195   0.841206   -2.129436 C.3        1 UNL1     0.0661
     41 C         0.946441   -0.786559   -1.652021 C.3        1 UNL1     0.0091
     42 C         0.815386   -2.320137   -2.650202 C.3        1 UNL1     0.0661
     43 C         -5.249734   -6.145989   -7.610702 C.2        1 UNL1     0.2131
     44 O         -6.2275   -6.635526   -8.146487 O.2        1 UNL1     -0.2851
     45 O         -6.235072   -4.50028   -9.656584 O.3        1 UNL1     -0.5056
     46 O         -2.15532   -2.164374   -5.164787 O.2        1 UNL1     -0.2836
     47 C         2.283485   -2.866646   -4.809791 C.3        1 UNL1     -0.0566
     48 O         1.955997   -2.989833   -1.979658 O.3        1 UNL1     -0.3909
     49 C         0.022805   -0.951895   -0.465827 C.3        1 UNL1     -0.0577
     50 O         0.553965   0.945016   -3.485649 O.3        1 UNL1     -0.3910
     51 O         -1.456948   2.958847   -3.325777 O.3        1 UNL1     -0.3753
     52 C         -2.70086   -0.068872   -1.484669 C.3        1 UNL1     -0.0564
     53 O         -1.201534   1.681643   0.839142 O.3        1 UNL1     -0.4608
     54 C         -0.178938   1.798726   1.743862 C.2        1 UNL1     0.3042
     55 O         0.531652   0.898071   2.188522 O.2        1 UNL1     -0.2512
     56 C         0.0951   3.215419   2.16171 C.3        1 UNL1     0.0332
     57 C         0.520512   3.591403   -1.83115 C.3        1 UNL1     -0.0567
     58 C         -4.880871   -0.318858   -5.314872 C.3        1 UNL1     0.0210
     59 C         -1.811993   4.34055   -3.352353 C.3        1 UNL1     0.0372
     60 C         -2.686404   1.112457   -4.027292 C.2        1 UNL1     -0.0208
     61 C         -2.127732   1.052306   -5.236843 C.2        1 UNL1     0.0882
     62 H         0.159553   -2.628144   -4.681935 H        1 UNL1     0.0365
     63 H         -0.518118   -4.13714   -5.8794 H        1 UNL1     0.0576
     64 H         0.827235   -6.815552   -5.163224 H        1 UNL1     0.0615
     65 H         -1.42911   -6.0412   -7.179941 H        1 UNL1     0.0622
     66 H         -3.421896   2.670286   -2.864384 H        1 UNL1     0.0645
     67 H         -3.207346   1.827687   -0.92939 H        1 UNL1     0.0362
     68 H         -1.453754   3.08122   -0.517635 H        1 UNL1     0.0741
     69 H         1.04968   2.213226   -0.441532 H        1 UNL1     0.0359
     70 H         2.013681   1.102694   -2.125852 H        1 UNL1     0.0600
     71 H         1.939036   -0.839608   -1.16325 H        1 UNL1     0.0348
     72 H         1.116948   -1.527492   -3.350265 H        1 UNL1     0.0602
     73 H         -3.48687   0.460464   -3.779488 H        1 UNL1     0.0628
     74 H         -1.266531   1.644312   -5.54845 H        1 UNL1     0.1022
     75 H         -0.208415   -9.948479   -7.075376 H        1 UNL1     0.0279
     76 H         -1.496014   -10.071719   -5.943916 H        1 UNL1     0.0279
     77 H         -1.772528   -10.213192   -7.726842 H        1 UNL1     0.0279
     78 H         -3.760123   -8.717614   -6.212504 H        1 UNL1     0.1553
     79 H         -2.895883   -7.931269   -4.612199 H        1 UNL1     0.1484
     80 H         -3.669829   -5.329444   -1.953063 H        1 UNL1     0.0317
     81 H         -4.805087   -5.754051   -3.226178 H        1 UNL1     0.0317
     82 H         -4.192669   -8.179987   -3.043208 H        1 UNL1     0.0428
     83 H         -4.757666   -7.508959   -1.529205 H        1 UNL1     0.0428
     84 H         -0.544853   -7.887269   -1.989884 H        1 UNL1     0.0428
     85 H         -1.515004   -8.445045   -3.307767 H        1 UNL1     0.0428
     86 H         -0.496246   -6.178762   -3.533482 H        1 UNL1     0.0317
     87 H         -1.306474   -5.569246   -2.164405 H        1 UNL1     0.0317
     88 H         -3.2226   -9.801331   -1.44428 H        1 UNL1     0.0429
     89 H         -1.727263   -9.402462   -0.595099 H        1 UNL1     0.0429
     90 H         -2.899518   -8.462369   1.239435 H        1 UNL1     0.0308
     91 H         -4.312047   -6.750496   0.539532 H        1 UNL1     0.0233
     92 H         -4.93393   -7.690341   -0.840848 H        1 UNL1     0.0233
     93 H         -5.569113   -7.960319   0.767958 H        1 UNL1     0.0233
     94 H         -4.770747   -9.952759   1.800745 H        1 UNL1     0.0233
     95 H         -4.791939   -10.543576   0.131968 H        1 UNL1     0.0233
     96 H         -3.371637   -10.839462   1.161135 H        1 UNL1     0.0233
     97 H         -6.542753   -0.796045   -9.000894 H        1 UNL1     0.0280
     98 H         -5.365927   -1.004935   -10.269213 H        1 UNL1     0.0280
     99 H         -6.777981   -2.099422   -10.180175 H        1 UNL1     0.0280
     100 H         -5.837379   -5.253818   -10.056138 H        1 UNL1     0.2922
     101 H         2.179065   -1.922976   -5.344805 H        1 UNL1     0.0236
     102 H         2.759832   -3.632654   -5.420781 H        1 UNL1     0.0236
     103 H         3.010196   -2.654741   -4.007806 H        1 UNL1     0.0236
     104 H         2.776106   -2.562649   -2.295736 H        1 UNL1     0.2098
     105 H         -0.998269   -1.219738   -0.725595 H        1 UNL1     0.0234
     106 H         0.399175   -1.611573   0.3159 H        1 UNL1     0.0234
     107 H         0.0   0.0   0.0 H        1 UNL1     0.0234
     108 H         0.648183   1.882407   -3.742923 H        1 UNL1     0.2098
     109 H         -3.742946   -0.245388   -1.785686 H        1 UNL1     0.0234
     110 H         -2.032411   -0.674892   -2.105684 H        1 UNL1     0.0234
     111 H         -2.602777   -0.506674   -0.482345 H        1 UNL1     0.0234
     112 H         0.932651   3.240476   2.865433 H        1 UNL1     0.0342
     113 H         0.282377   3.865212   1.308165 H        1 UNL1     0.0342
     114 H         -0.793749   3.597614   2.682324 H        1 UNL1     0.0342
     115 H         1.339984   3.636822   -2.561622 H        1 UNL1     0.0234
     116 H         -0.371683   3.996212   -2.312987 H        1 UNL1     0.0234
     117 H         0.863774   4.323472   -1.080026 H        1 UNL1     0.0234
     118 H         -5.384063   0.640891   -5.526261 H        1 UNL1     0.0309
     119 H         -5.618654   -1.126495   -5.354872 H        1 UNL1     0.0309
     120 H         -4.590373   -0.225358   -4.262743 H        1 UNL1     0.0309
     121 H         -1.990504   4.615151   -4.391624 H        1 UNL1     0.0524
     122 H         -2.738839   4.545217   -2.791012 H        1 UNL1     0.0524
     123 H         -1.008581   4.943089   -2.938142 H        1 UNL1     0.0524
@<TRIPOS>BOND
     1     1     2    1
     2     1    42    1
     3     2     3    2
     4     3     4    1
     5     4     5    2
     6     5     7    1
     7     6    75    1
     8     6    76    1
     9     6    77    1
    10     7     9   am
    11     9    10    1
    12    10    11    2
    13    10    43    1
    14    11    14    1
    15    11    15    1
    16    12    13   ar
    17    12    27   ar
    18    12    43    1
    19    13    14    1
    20    13    30   ar
    21    14    17    2
    22    15    16    1
    23    16    17    1
    24    16    18    1
    25    16    22    1
    26    18    19    1
    27    19    20    1
    28    20    21    1
    29    21    22    1
    30    23    24    1
    31    23    88    1
    32    23    89    1
    33    24    25    1
    34    24    26    1
    35    24    90    1
    36    25    91    1
    37    25    92    1
    38    25    93    1
    39    26    94    1
    40    26    95    1
    41    26    96    1
    42    27    28   ar
    43    28    29   ar
    44    29    30   ar
    45    29    31    1
    46    30    33    1
    47    31    32    1
    48    32    33    1
    49    32    35    1
    50    34    97    1
    51    34    98    1
    52    34    99    1
    53    35    61    1
    54    36    37    1
    55    36    60    1
    56    37    38    1
    57    38    39    1
    58    39    40    1
    59    40    41    1
    60    41    42    1
    61    45   100    1
    62    47   101    1
    63    47   102    1
    64    47   103    1
    65    48   104    1
    66    49   105    1
    67    49   106    1
    68    49   107    1
    69    50   108    1
    70    51    59    1
    71    52   109    1
    72    52   110    1
    73    52   111    1
    74    53    54    1
    75    54    55    2
    76    54    56    1
    77    56   112    1
    78    56   113    1
    79    56   114    1
    80    57   115    1
    81    57   116    1
    82    57   117    1
    83    58   118    1
    84    58   119    1
    85    58   120    1
    86    59   121    1
    87    59   122    1
    88    59   123    1
    89    60    61    2
    90     1    47    1
    91     1    62    1
    92     2    63    1
    93     3    64    1
    94     4    65    1
    95     5     6    1
    96     7     8    2
    97     9    78    1
    98    15    79    1
    99    18    80    1
   100    18    81    1
   101    19    82    1
   102    19    83    1
   103    20    23    1
   104    21    84    1
   105    21    85    1
   106    22    86    1
   107    22    87    1
   108    27    45    1
   109    28    34    1
   110    32    58    1
   111    33    46    2
   112    36    51    1
   113    36    66    1
   114    37    52    1
   115    37    67    1
   116    38    53    1
   117    38    68    1
   118    42    48    1
   119    42    72    1
   120    43    44    2
   121    60    73    1
   122    61    74    1
   123    39    69    1
   124    39    57    1
   125    40    70    1
   126    40    50    1
   127    41    71    1
   128    41    49    1
