@<TRIPOS>MOLECULE
*****
 123 128 0 0 0
SMALL
GASTEIGER

@<TRIPOS>ATOM
     1 C         -2.094533   2.398274   -2.628027 C.3        1 UNL1     0.0009
     2 C         -2.227258   4.247441   -2.627438 C.2        1 UNL1     -0.0787
     3 C         -2.927234   5.456367   -2.247204 C.2        1 UNL1     -0.0649
     4 C         -2.430582   7.05971   -2.468527 C.2        1 UNL1     -0.0542
     5 C         -2.604717   8.398786   -2.040005 C.2        1 UNL1     0.0115
     6 C         -3.49351   9.336687   -1.177617 C.3        1 UNL1     -0.0348
     7 C         -1.470546   9.479889   -2.389092 C.2        1 UNL1     0.2441
     8 O         -1.585269   10.296548   -3.292659 O.2        1 UNL1     -0.2702
     9 N         -0.453366   9.598302   -1.426037 N.am        1 UNL1     -0.2772
     10 C         0.556047   8.698523   -1.680605 C.2        1 UNL1     0.1049
     11 C         0.366833   7.469956   -1.234464 C.2        1 UNL1     0.0801
     12 C         2.042477   7.848651   -3.504222 C.ar        1 UNL1     0.0753
     13 C         1.639687   6.532393   -3.112004 C.ar        1 UNL1     0.0305
     14 C         0.891062   6.296717   -1.879499 C.2        1 UNL1     0.0924
     15 N         -0.559181   6.992306   -0.385419 N.pl3        1 UNL1     -0.3170
     16 C         -0.223368   5.624037   -0.09332 C.3        1 UNL1     0.1275
     17 N         0.524667   5.14945   -1.315177 N.2        1 UNL1     -0.2557
     18 C         0.792301   5.640844   1.045028 C.3        1 UNL1     0.0016
     19 C         0.196874   6.40503   2.216811 C.3        1 UNL1     0.0026
     20 N         -1.037048   5.748014   2.625215 N.3        1 UNL1     -0.3018
     21 C         -2.053817   5.628595   1.578177 C.3        1 UNL1     0.0026
     22 C         -1.435758   4.853794   0.413024 C.3        1 UNL1     0.0016
     23 C         -1.524184   6.21105   3.909325 C.3        1 UNL1     0.0012
     24 C         -0.508535   7.164083   4.558895 C.3        1 UNL1     -0.0339
     25 C         0.74016   7.33979   3.679155 C.3        1 UNL1     -0.0615
     26 C         -1.168026   8.497308   4.866078 C.3        1 UNL1     -0.0615
     27 C         2.857983   8.053003   -4.614766 C.ar        1 UNL1     0.1347
     28 C         3.363938   7.020461   -5.384128 C.ar        1 UNL1     0.0342
     29 C         2.914415   5.736724   -5.008481 C.ar        1 UNL1     0.1435
     30 C         2.068342   5.519705   -3.920232 C.ar        1 UNL1     0.0774
     31 O         3.404074   4.62028   -5.59054 O.3        1 UNL1     -0.4436
     32 C         3.097221   3.565211   -4.666667 C.3        1 UNL1     0.3143
     33 C         1.928339   4.080116   -3.851314 C.2        1 UNL1     0.2504
     34 C         4.438522   7.143633   -6.428252 C.3        1 UNL1     -0.0327
     35 O         2.614363   2.454936   -5.43308 O.2        1 UNL1     -0.4528
     36 C         3.590226   -0.655153   -3.488055 C.3        1 UNL1     0.0854
     37 C         3.23381   -1.055283   -2.004685 C.3        1 UNL1     0.0236
     38 C         2.525575   -2.484842   -1.841872 C.3        1 UNL1     0.1131
     39 C         1.263655   -2.841187   -2.726656 C.3        1 UNL1     0.0200
     40 C         0.050686   -1.719907   -2.958766 C.3        1 UNL1     0.0661
     41 C         -0.724424   -0.828221   -1.741511 C.3        1 UNL1     0.0091
     42 C         -1.428927   0.865334   -1.772325 C.3        1 UNL1     0.0661
     43 C         1.636482   8.982302   -2.636891 C.2        1 UNL1     0.2131
     44 O         2.210416   10.056107   -2.620164 O.2        1 UNL1     -0.2851
     45 O         3.166472   9.368421   -4.95528 O.3        1 UNL1     -0.5056
     46 O         1.063503   3.445481   -3.289931 O.2        1 UNL1     -0.2836
     47 C         -3.114042   1.784767   -3.625119 C.3        1 UNL1     -0.0566
     48 O         -2.704671   0.469306   -1.12831 O.3        1 UNL1     -0.3909
     49 C         0.074451   -0.950584   -0.463105 C.3        1 UNL1     -0.0577
     50 O         0.346608   -0.88172   -4.057673 O.3        1 UNL1     -0.3910
     51 O         3.09273   -1.509497   -4.493056 O.3        1 UNL1     -0.3753
     52 C         2.807322   0.185359   -1.153882 C.3        1 UNL1     -0.0564
     53 O         2.516548   -2.993262   -0.429868 O.3        1 UNL1     -0.4608
     54 C         1.492992   -3.689424   0.158028 C.2        1 UNL1     0.3042
     55 O         0.413234   -3.997083   -0.345268 O.2        1 UNL1     -0.2512
     56 C         1.802849   -4.150011   1.553937 C.3        1 UNL1     0.0332
     57 C         1.783385   -3.652027   -4.003604 C.3        1 UNL1     -0.0567
     58 C         4.327487   3.423261   -3.740478 C.3        1 UNL1     0.0210
     59 C         4.079427   -2.311284   -5.140691 C.3        1 UNL1     0.0372
     60 C         3.20825   0.7304   -3.874703 C.2        1 UNL1     -0.0208
     61 C         2.614176   1.187344   -4.977891 C.2        1 UNL1     0.0882
     62 H         -1.143508   2.485855   -3.167092 H        1 UNL1     0.0365
     63 H         -1.374148   4.512985   -3.255259 H        1 UNL1     0.0576
     64 H         -3.811022   5.428459   -1.605919 H        1 UNL1     0.0615
     65 H         -1.602828   6.980488   -3.178477 H        1 UNL1     0.0622
     66 H         4.688219   -0.686782   -3.526242 H        1 UNL1     0.0645
     67 H         4.214868   -1.241527   -1.534156 H        1 UNL1     0.0362
     68 H         3.333965   -3.133816   -2.211819 H        1 UNL1     0.0741
     69 H         0.738041   -3.667272   -2.266522 H        1 UNL1     0.0359
     70 H         -0.754965   -2.383866   -3.326387 H        1 UNL1     0.0600
     71 H         -1.580725   -1.49739   -1.527222 H        1 UNL1     0.0348
     72 H         -1.347565   0.55157   -2.823157 H        1 UNL1     0.0602
     73 H         3.599723   1.412519   -3.161463 H        1 UNL1     0.0628
     74 H         2.136312   0.555848   -5.727621 H        1 UNL1     0.1022
     75 H         -4.565659   9.244285   -1.475931 H        1 UNL1     0.0279
     76 H         -3.528192   9.126604   -0.110972 H        1 UNL1     0.0279
     77 H         -3.3045   10.401994   -1.375345 H        1 UNL1     0.0279
     78 H         -0.828607   9.384987   -0.504208 H        1 UNL1     0.1553
     79 H         -1.088468   7.568321   0.243067 H        1 UNL1     0.1484
     80 H         1.035496   4.608056   1.322466 H        1 UNL1     0.0317
     81 H         1.729831   6.108763   0.72606 H        1 UNL1     0.0317
     82 H         0.018696   7.461049   1.965836 H        1 UNL1     0.0428
     83 H         0.93814   6.406375   3.016545 H        1 UNL1     0.0428
     84 H         -2.937448   5.061714   1.887455 H        1 UNL1     0.0428
     85 H         -2.454859   6.608411   1.284165 H        1 UNL1     0.0428
     86 H         -2.241914   4.670657   -0.272952 H        1 UNL1     0.0317
     87 H         -1.149131   3.847542   0.742262 H        1 UNL1     0.0317
     88 H         -2.460454   6.759379   3.741907 H        1 UNL1     0.0429
     89 H         -1.758732   5.369534   4.573865 H        1 UNL1     0.0429
     90 H         -0.198594   6.753123   5.527018 H        1 UNL1     0.0308
     91 H         1.031988   8.391898   3.608385 H        1 UNL1     0.0233
     92 H         1.57736   6.761362   4.076805 H        1 UNL1     0.0233
     93 H         0.582155   6.983828   2.653894 H        1 UNL1     0.0233
     94 H         -1.463057   8.995842   3.936424 H        1 UNL1     0.0233
     95 H         -2.069558   8.339111   5.464557 H        1 UNL1     0.0233
     96 H         -0.492291   9.159888   5.41411 H        1 UNL1     0.0233
     97 H         4.745692   6.175712   -6.812968 H        1 UNL1     0.0280
     98 H         4.104248   7.721203   -7.299992 H        1 UNL1     0.0280
     99 H         5.321828   7.638316   -5.992184 H        1 UNL1     0.0280
     100 H         3.042985   9.991781   -4.261166 H        1 UNL1     0.2922
     101 H         -3.992402   2.426159   -3.694089 H        1 UNL1     0.0236
     102 H         -3.377582   0.754338   -3.389012 H        1 UNL1     0.0236
     103 H         -2.715521   1.744526   -4.652618 H        1 UNL1     0.0236
     104 H         -2.620039   -0.465483   -0.856322 H        1 UNL1     0.2098
     105 H         -0.306315   -1.691634   0.235231 H        1 UNL1     0.0234
     106 H         1.146675   -1.083003   -0.607078 H        1 UNL1     0.0234
     107 H         0.0   0.0   0.0 H        1 UNL1     0.0234
     108 H         0.084962   -1.3614   -4.867128 H        1 UNL1     0.2098
     109 H         3.606198   0.936844   -1.084749 H        1 UNL1     0.0234
     110 H         1.888416   0.659603   -1.515057 H        1 UNL1     0.0234
     111 H         2.57281   -0.095268   -0.118412 H        1 UNL1     0.0234
     112 H         2.666172   -4.82221   1.54101 H        1 UNL1     0.0342
     113 H         1.967783   -3.315242   2.233497 H        1 UNL1     0.0342
     114 H         0.939537   -4.71775   1.927473 H        1 UNL1     0.0342
     115 H         1.691442   -3.06305   -4.926556 H        1 UNL1     0.0234
     116 H         2.821046   -3.982895   -3.927224 H        1 UNL1     0.0234
     117 H         1.162841   -4.531021   -4.249035 H        1 UNL1     0.0234
     118 H         4.930392   2.531436   -3.985753 H        1 UNL1     0.0309
     119 H         4.974641   4.306067   -3.74745 H        1 UNL1     0.0309
     120 H         4.048942   3.259731   -2.693685 H        1 UNL1     0.0309
     121 H         4.36784   -1.801066   -6.059305 H        1 UNL1     0.0524
     122 H         4.988573   -2.431626   -4.528311 H        1 UNL1     0.0524
     123 H         3.675218   -3.293525   -5.368531 H        1 UNL1     0.0524
@<TRIPOS>BOND
     1     1     2    1
     2     1    42    1
     3     2     3    2
     4     3     4    1
     5     4     5    2
     6     5     7    1
     7     6    75    1
     8     6    76    1
     9     6    77    1
    10     7     9   am
    11     9    10    1
    12    10    11    2
    13    10    43    1
    14    11    14    1
    15    11    15    1
    16    12    13   ar
    17    12    27   ar
    18    12    43    1
    19    13    14    1
    20    13    30   ar
    21    14    17    2
    22    15    16    1
    23    16    17    1
    24    16    18    1
    25    16    22    1
    26    18    19    1
    27    19    20    1
    28    20    21    1
    29    21    22    1
    30    23    24    1
    31    23    88    1
    32    23    89    1
    33    24    25    1
    34    24    26    1
    35    24    90    1
    36    25    91    1
    37    25    92    1
    38    25    93    1
    39    26    94    1
    40    26    95    1
    41    26    96    1
    42    27    28   ar
    43    28    29   ar
    44    29    30   ar
    45    29    31    1
    46    30    33    1
    47    31    32    1
    48    32    33    1
    49    32    35    1
    50    34    97    1
    51    34    98    1
    52    34    99    1
    53    35    61    1
    54    36    37    1
    55    36    60    1
    56    37    38    1
    57    38    39    1
    58    39    40    1
    59    40    41    1
    60    41    42    1
    61    45   100    1
    62    47   101    1
    63    47   102    1
    64    47   103    1
    65    48   104    1
    66    49   105    1
    67    49   106    1
    68    49   107    1
    69    50   108    1
    70    51    59    1
    71    52   109    1
    72    52   110    1
    73    52   111    1
    74    53    54    1
    75    54    55    2
    76    54    56    1
    77    56   112    1
    78    56   113    1
    79    56   114    1
    80    57   115    1
    81    57   116    1
    82    57   117    1
    83    58   118    1
    84    58   119    1
    85    58   120    1
    86    59   121    1
    87    59   122    1
    88    59   123    1
    89    60    61    2
    90     1    47    1
    91     1    62    1
    92     2    63    1
    93     3    64    1
    94     4    65    1
    95     5     6    1
    96     7     8    2
    97     9    78    1
    98    15    79    1
    99    18    80    1
   100    18    81    1
   101    19    82    1
   102    19    83    1
   103    20    23    1
   104    21    84    1
   105    21    85    1
   106    22    86    1
   107    22    87    1
   108    27    45    1
   109    28    34    1
   110    32    58    1
   111    33    46    2
   112    36    51    1
   113    36    66    1
   114    37    52    1
   115    37    67    1
   116    38    53    1
   117    38    68    1
   118    42    48    1
   119    42    72    1
   120    43    44    2
   121    60    73    1
   122    61    74    1
   123    39    69    1
   124    39    57    1
   125    40    70    1
   126    40    50    1
   127    41    71    1
   128    41    49    1
