@<TRIPOS>MOLECULE
*****
 123 128 0 0 0
SMALL
GASTEIGER

@<TRIPOS>ATOM
     1 C         5.167917   1.755678   0.457011 C.3        1 UNL1     0.0009
     2 C         6.598585   2.561884   -0.403371 C.2        1 UNL1     -0.0787
     3 C         7.876421   2.463918   -1.076857 C.2        1 UNL1     -0.0649
     4 C         8.748049   3.698762   -1.839603 C.2        1 UNL1     -0.0542
     5 C         9.761994   3.990997   -2.784903 C.2        1 UNL1     0.0115
     6 C         10.885406   3.365348   -3.656586 C.3        1 UNL1     -0.0348
     7 C         9.852218   5.473472   -3.394099 C.2        1 UNL1     0.2441
     8 O         10.677657   6.296412   -3.022688 O.2        1 UNL1     -0.2702
     9 N         9.094596   5.678078   -4.560416 N.am        1 UNL1     -0.2772
     10 C         7.813485   6.064034   -4.239302 C.2        1 UNL1     0.1049
     11 C         6.970414   5.092266   -3.94077 C.2        1 UNL1     0.0801
     12 C         6.52234   7.671513   -2.822868 C.ar        1 UNL1     0.0753
     13 C         5.7671   6.543546   -2.369095 C.ar        1 UNL1     0.0305
     14 C         5.881252   5.23703   -3.01333 C.2        1 UNL1     0.0924
     15 N         7.093277   3.763175   -4.098718 N.pl3        1 UNL1     -0.3170
     16 C         5.825935   3.163294   -3.775857 C.3        1 UNL1     0.1275
     17 N         5.194712   4.119347   -2.793389 N.2        1 UNL1     -0.2557
     18 C         4.965251   3.219776   -5.034322 C.3        1 UNL1     0.0016
     19 C         5.713784   2.53476   -6.166595 C.3        1 UNL1     0.0026
     20 N         5.987574   1.15746   -5.780446 N.3        1 UNL1     -0.3018
     21 C         6.758712   0.999537   -4.545628 C.3        1 UNL1     0.0026
     22 C         5.986262   1.690949   -3.420832 C.3        1 UNL1     0.0016
     23 C         6.425981   0.336741   -6.891691 C.3        1 UNL1     0.0012
     24 C         5.264729   0.084804   -7.866256 C.3        1 UNL1     -0.0339
     25 C         5.351433   1.005734   -9.094436 C.3        1 UNL1     -0.0615
     26 C         5.22966   -1.379738   -8.267088 C.3        1 UNL1     -0.0615
     27 C         6.319843   8.939791   -2.283808 C.ar        1 UNL1     0.1347
     28 C         5.36648   9.209837   -1.318291 C.ar        1 UNL1     0.0342
     29 C         4.66882   8.075406   -0.851918 C.ar        1 UNL1     0.1435
     30 C         4.886323   6.792858   -1.356874 C.ar        1 UNL1     0.0774
     31 O         3.633013   8.189244   0.007821 O.3        1 UNL1     -0.4436
     32 C         2.91161   6.955563   -0.12812 C.3        1 UNL1     0.3143
     33 C         3.922518   5.962622   -0.665097 C.2        1 UNL1     0.2504
     34 C         4.921109   10.576162   -0.876816 C.3        1 UNL1     -0.0327
     35 O         2.559511   6.520423   1.190945 O.2        1 UNL1     -0.4528
     36 C         -0.684139   4.584705   0.817017 C.3        1 UNL1     0.0854
     37 C         -0.993818   3.322554   -0.076626 C.3        1 UNL1     0.0236
     38 C         -1.58833   2.062096   0.716812 C.3        1 UNL1     0.1131
     39 C         -0.854057   1.533697   2.014467 C.3        1 UNL1     0.0200
     40 C         0.807492   1.38973   2.045577 C.3        1 UNL1     0.0661
     41 C         1.76033   0.620096   0.871962 C.3        1 UNL1     0.0091
     42 C         3.464065   0.983401   0.296896 C.3        1 UNL1     0.0661
     43 C         7.465629   7.463066   -3.949373 C.2        1 UNL1     0.2131
     44 O         7.860236   8.360473   -4.67165 O.2        1 UNL1     -0.2851
     45 O         7.128306   9.974979   -2.748794 O.3        1 UNL1     -0.5056
     46 O         3.940425   4.759292   -0.532693 O.2        1 UNL1     -0.2836
     47 C         5.573556   1.328638   1.893352 C.3        1 UNL1     -0.0566
     48 O         3.914426   -0.427175   0.377935 O.3        1 UNL1     -0.3909
     49 C         0.91871   0.384955   -0.362493 C.3        1 UNL1     -0.0577
     50 O         1.408984   2.608705   2.432913 O.3        1 UNL1     -0.3910
     51 O         -0.799449   4.396927   2.209451 O.3        1 UNL1     -0.3753
     52 C         0.043641   3.161372   -1.235353 C.3        1 UNL1     -0.0564
     53 O         -2.195526   1.021264   -0.177787 O.3        1 UNL1     -0.4608
     54 C         -2.395486   -0.293336   0.153534 C.2        1 UNL1     0.3042
     55 O         -1.722461   -1.262293   -0.195749 O.2        1 UNL1     -0.2512
     56 C         -3.54633   -0.507934   1.094926 C.3        1 UNL1     0.0332
     57 C         -1.567889   2.203856   3.279182 C.3        1 UNL1     -0.0567
     58 C         1.829507   7.198104   -1.205968 C.3        1 UNL1     0.0210
     59 C         -1.10915   5.576715   2.949755 C.3        1 UNL1     0.0372
     60 C         0.642826   5.214666   0.577279 C.2        1 UNL1     -0.0208
     61 C         1.560719   5.651989   1.440394 C.2        1 UNL1     0.0882
     62 H         4.69164   2.739542   0.545802 H        1 UNL1     0.0365
     63 H         6.332025   3.615591   -0.297942 H        1 UNL1     0.0576
     64 H         8.333589   1.497166   -1.299336 H        1 UNL1     0.0615
     65 H         8.262279   4.614216   -1.4911 H        1 UNL1     0.0622
     66 H         -1.43138   5.330104   0.510329 H        1 UNL1     0.0645
     67 H         -1.863415   3.630245   -0.682998 H        1 UNL1     0.0362
     68 H         -2.533608   2.498619   1.073771 H        1 UNL1     0.0741
     69 H         -1.183434   0.522582   2.213376 H        1 UNL1     0.0359
     70 H         0.925324   0.73078   2.927031 H        1 UNL1     0.0600
     71 H         1.807492   -0.400409   1.300101 H        1 UNL1     0.0348
     72 H         3.363798   1.472931   1.276499 H        1 UNL1     0.0602
     73 H         0.754125   5.410517   -0.460267 H        1 UNL1     0.0628
     74 H         1.549987   5.442863   2.510622 H        1 UNL1     0.1022
     75 H         10.880275   2.252569   -3.563143 H        1 UNL1     0.0279
     76 H         10.803162   3.510558   -4.731397 H        1 UNL1     0.0279
     77 H         11.893433   3.609025   -3.290249 H        1 UNL1     0.0279
     78 H         9.030148   4.807311   -5.08357 H        1 UNL1     0.1553
     79 H         7.755107   3.334892   -4.719596 H        1 UNL1     0.1484
     80 H         4.005641   2.728251   -4.83353 H        1 UNL1     0.0317
     81 H         4.736017   4.255928   -5.305419 H        1 UNL1     0.0317
     82 H         6.642406   3.066547   -6.421106 H        1 UNL1     0.0428
     83 H         5.083074   2.588038   -7.054523 H        1 UNL1     0.0428
     84 H         6.881901   -0.042854   -4.235699 H        1 UNL1     0.0428
     85 H         7.787804   1.368355   -4.656355 H        1 UNL1     0.0428
     86 H         6.508525   1.442376   -2.515603 H        1 UNL1     0.0317
     87 H         5.008049   1.212604   -3.288989 H        1 UNL1     0.0317
     88 H         7.218268   0.878494   -7.424684 H        1 UNL1     0.0429
     89 H         6.861609   -0.608126   -6.542078 H        1 UNL1     0.0429
     90 H         4.31582   0.277328   -7.351746 H        1 UNL1     0.0308
     91 H         6.366482   1.030576   -9.502064 H        1 UNL1     0.0233
     92 H         4.659992   0.676585   -9.873653 H        1 UNL1     0.0233
     93 H         5.077336   2.041465   -8.859981 H        1 UNL1     0.0233
     94 H         4.693239   -1.499259   -9.214613 H        1 UNL1     0.0233
     95 H         6.247921   -1.753388   -8.406708 H        1 UNL1     0.0233
     96 H         4.730914   -1.989285   -7.508357 H        1 UNL1     0.0233
     97 H         4.077495   10.529085   -0.194666 H        1 UNL1     0.0280
     98 H         5.712084   11.115808   -0.33979 H        1 UNL1     0.0280
     99 H         4.621437   11.168813   -1.756621 H        1 UNL1     0.0280
     100 H         6.662294   10.752882   -3.00043 H        1 UNL1     0.2922
     101 H         4.691376   0.999321   2.441955 H        1 UNL1     0.0236
     102 H         6.124777   2.099906   2.430274 H        1 UNL1     0.0236
     103 H         6.244647   0.453523   1.891246 H        1 UNL1     0.0236
     104 H         4.251598   -0.577628   1.282728 H        1 UNL1     0.2098
     105 H         0.70043   1.28297   -0.934973 H        1 UNL1     0.0234
     106 H         1.285585   -0.402668   -1.020506 H        1 UNL1     0.0234
     107 H         0.0   -0.0   0.0 H        1 UNL1     0.0234
     108 H         1.259362   3.248493   1.710381 H        1 UNL1     0.2098
     109 H         1.072349   3.061779   -0.861786 H        1 UNL1     0.0234
     110 H         -0.185526   2.325472   -1.905052 H        1 UNL1     0.0234
     111 H         0.051149   4.038002   -1.896722 H        1 UNL1     0.0234
     112 H         -3.637793   -1.571696   1.334494 H        1 UNL1     0.0342
     113 H         -3.451769   0.089731   2.000298 H        1 UNL1     0.0342
     114 H         -4.468825   -0.196902   0.585586 H        1 UNL1     0.0342
     115 H         -2.656124   2.053503   3.261117 H        1 UNL1     0.0234
     116 H         -1.201862   1.838576   4.240766 H        1 UNL1     0.0234
     117 H         -1.505099   3.305643   3.287136 H        1 UNL1     0.0234
     118 H         0.821415   7.296586   -0.766585 H        1 UNL1     0.0309
     119 H         2.034576   8.072698   -1.831456 H        1 UNL1     0.0309
     120 H         1.723807   6.351727   -1.893412 H        1 UNL1     0.0309
     121 H         -0.730252   5.439624   3.962177 H        1 UNL1     0.0524
     122 H         -0.621781   6.473111   2.531445 H        1 UNL1     0.0524
     123 H         -2.18346   5.736533   2.970028 H        1 UNL1     0.0524
@<TRIPOS>BOND
     1     1     2    1
     2     1    42    1
     3     2     3    2
     4     3     4    1
     5     4     5    2
     6     5     7    1
     7     6    75    1
     8     6    76    1
     9     6    77    1
    10     7     9   am
    11     9    10    1
    12    10    11    2
    13    10    43    1
    14    11    14    1
    15    11    15    1
    16    12    13   ar
    17    12    27   ar
    18    12    43    1
    19    13    14    1
    20    13    30   ar
    21    14    17    2
    22    15    16    1
    23    16    17    1
    24    16    18    1
    25    16    22    1
    26    18    19    1
    27    19    20    1
    28    20    21    1
    29    21    22    1
    30    23    24    1
    31    23    88    1
    32    23    89    1
    33    24    25    1
    34    24    26    1
    35    24    90    1
    36    25    91    1
    37    25    92    1
    38    25    93    1
    39    26    94    1
    40    26    95    1
    41    26    96    1
    42    27    28   ar
    43    28    29   ar
    44    29    30   ar
    45    29    31    1
    46    30    33    1
    47    31    32    1
    48    32    33    1
    49    32    35    1
    50    34    97    1
    51    34    98    1
    52    34    99    1
    53    35    61    1
    54    36    37    1
    55    36    60    1
    56    37    38    1
    57    38    39    1
    58    39    40    1
    59    40    41    1
    60    41    42    1
    61    45   100    1
    62    47   101    1
    63    47   102    1
    64    47   103    1
    65    48   104    1
    66    49   105    1
    67    49   106    1
    68    49   107    1
    69    50   108    1
    70    51    59    1
    71    52   109    1
    72    52   110    1
    73    52   111    1
    74    53    54    1
    75    54    55    2
    76    54    56    1
    77    56   112    1
    78    56   113    1
    79    56   114    1
    80    57   115    1
    81    57   116    1
    82    57   117    1
    83    58   118    1
    84    58   119    1
    85    58   120    1
    86    59   121    1
    87    59   122    1
    88    59   123    1
    89    60    61    2
    90     1    47    1
    91     1    62    1
    92     2    63    1
    93     3    64    1
    94     4    65    1
    95     5     6    1
    96     7     8    2
    97     9    78    1
    98    15    79    1
    99    18    80    1
   100    18    81    1
   101    19    82    1
   102    19    83    1
   103    20    23    1
   104    21    84    1
   105    21    85    1
   106    22    86    1
   107    22    87    1
   108    27    45    1
   109    28    34    1
   110    32    58    1
   111    33    46    2
   112    36    51    1
   113    36    66    1
   114    37    52    1
   115    37    67    1
   116    38    53    1
   117    38    68    1
   118    42    48    1
   119    42    72    1
   120    43    44    2
   121    60    73    1
   122    61    74    1
   123    39    69    1
   124    39    57    1
   125    40    70    1
   126    40    50    1
   127    41    71    1
   128    41    49    1
