@<TRIPOS>MOLECULE
*****
 123 128 0 0 0
SMALL
GASTEIGER

@<TRIPOS>ATOM
     1 C         3.280095   2.518704   -3.245421 C.3        1 UNL1     0.0009
     2 C         4.001721   2.361364   -4.945873 C.2        1 UNL1     -0.0787
     3 C         5.145077   2.164157   -5.811837 C.2        1 UNL1     -0.0649
     4 C         5.156255   1.979501   -7.494732 C.2        1 UNL1     -0.0542
     5 C         5.898313   1.509459   -8.606257 C.2        1 UNL1     0.0115
     6 C         7.288672   0.983212   -9.057131 C.3        1 UNL1     -0.0348
     7 C         5.13469   1.240387   -9.992428 C.2        1 UNL1     0.2441
     8 O         5.183553   2.012709   -10.939875 O.2        1 UNL1     -0.2702
     9 N         4.62174   -0.060155   -10.139483 N.am        1 UNL1     -0.2772
     10 C         3.352659   -0.13814   -9.613485 C.2        1 UNL1     0.1049
     11 C         3.273978   -0.325188   -8.308477 C.2        1 UNL1     0.0801
     12 C         1.127967   1.005537   -9.622556 C.ar        1 UNL1     0.0753
     13 C         1.188771   0.964366   -8.193145 C.ar        1 UNL1     0.0305
     14 C         2.202888   0.179488   -7.492728 C.2        1 UNL1     0.0924
     15 N         4.229064   -0.662749   -7.42508 N.pl3        1 UNL1     -0.3170
     16 C         3.590084   -0.908197   -6.159491 C.3        1 UNL1     0.1275
     17 N         2.347832   -0.051727   -6.191015 N.2        1 UNL1     -0.2557
     18 C         3.107083   -2.355367   -6.169956 C.3        1 UNL1     0.0016
     19 C         4.292653   -3.261667   -6.460873 C.3        1 UNL1     0.0026
     20 N         5.303418   -3.054064   -5.433117 N.3        1 UNL1     -0.3018
     21 C         5.786035   -1.677478   -5.304816 C.3        1 UNL1     0.0026
     22 C         4.579494   -0.785195   -5.008194 C.3        1 UNL1     0.0016
     23 C         6.335171   -4.071919   -5.443087 C.3        1 UNL1     0.0012
     24 C         7.672407   -3.488104   -4.960683 C.3        1 UNL1     -0.0339
     25 C         8.863391   -4.138106   -5.683949 C.3        1 UNL1     -0.0615
     26 C         7.672516   -1.978621   -5.128739 C.3        1 UNL1     -0.0615
     27 C         0.088022   1.656232   -10.282275 C.ar        1 UNL1     0.1347
     28 C         -0.964893   2.264958   -9.622826 C.ar        1 UNL1     0.0342
     29 C         -0.858333   2.254132   -8.215811 C.ar        1 UNL1     0.1435
     30 C         0.196392   1.637538   -7.541579 C.ar        1 UNL1     0.0774
     31 O         -1.858308   2.709353   -7.42979 O.3        1 UNL1     -0.4436
     32 C         -1.608481   2.117579   -6.145943 C.3        1 UNL1     0.3143
     33 C         -0.127619   1.796305   -6.139232 C.2        1 UNL1     0.2504
     34 C         -2.235055   2.759173   -10.257286 C.3        1 UNL1     -0.0327
     35 O         -1.819041   3.135364   -5.15952 O.2        1 UNL1     -0.4528
     36 C         -3.005597   1.330082   -2.038442 C.3        1 UNL1     0.0854
     37 C         -2.300539   0.176857   -1.225738 C.3        1 UNL1     0.0236
     38 C         -2.090041   0.480912   0.334706 C.3        1 UNL1     0.1131
     39 C         -1.412792   1.837381   0.785921 C.3        1 UNL1     0.0200
     40 C         -0.064581   2.414013   -0.009228 C.3        1 UNL1     0.0661
     41 C         1.336261   1.525177   -0.363097 C.3        1 UNL1     0.0091
     42 C         2.497079   1.646994   -1.778393 C.3        1 UNL1     0.0661
     43 C         2.160925   0.255785   -10.379609 C.2        1 UNL1     0.2131
     44 O         2.015111   -0.115662   -11.530045 O.2        1 UNL1     -0.2851
     45 O         0.127853   1.689072   -11.674673 O.3        1 UNL1     -0.5056
     46 O         0.62094   1.712369   -5.191357 O.2        1 UNL1     -0.2836
     47 C         3.62107   3.907496   -2.64129 C.3        1 UNL1     -0.0566
     48 O         3.713064   1.628388   -0.929775 O.3        1 UNL1     -0.3909
     49 C         1.047187   0.0553   -0.154791 C.3        1 UNL1     -0.0577
     50 O         -0.437574   3.19357   -1.12766 O.3        1 UNL1     -0.3910
     51 O         -3.203793   2.540825   -1.344 O.3        1 UNL1     -0.3753
     52 C         -1.220443   -0.561772   -2.081758 C.3        1 UNL1     -0.0564
     53 O         -1.750112   -0.736833   1.143329 O.3        1 UNL1     -0.4608
     54 C         -1.014956   -0.743602   2.299801 C.2        1 UNL1     0.3042
     55 O         -1.348243   -1.196853   3.394023 O.2        1 UNL1     -0.2512
     56 C         0.364257   -0.170331   2.139036 C.3        1 UNL1     0.0332
     57 C         -2.584394   2.875131   1.115465 C.3        1 UNL1     -0.0567
     58 C         -2.406419   0.793317   -6.111967 C.3        1 UNL1     0.0210
     59 C         -3.791812   3.585954   -2.117179 C.3        1 UNL1     0.0372
     60 C         -2.353869   1.678036   -3.33047 C.2        1 UNL1     -0.0208
     61 C         -2.072991   2.867554   -3.86423 C.2        1 UNL1     0.0882
     62 H         2.284859   2.609689   -3.697015 H        1 UNL1     0.0365
     63 H         3.119218   2.552368   -5.560019 H        1 UNL1     0.0576
     64 H         6.136982   1.946352   -5.409602 H        1 UNL1     0.0615
     65 H         4.154177   2.29457   -7.798134 H        1 UNL1     0.0622
     66 H         -3.991877   0.920942   -2.299026 H        1 UNL1     0.0645
     67 H         -3.055356   -0.627951   -1.192651 H        1 UNL1     0.0362
     68 H         -3.14157   0.560771   0.650032 H        1 UNL1     0.0741
     69 H         -1.059962   1.728812   1.802844 H        1 UNL1     0.0359
     70 H         0.294604   3.15107   0.734272 H        1 UNL1     0.0600
     71 H         1.943528   1.756202   0.534016 H        1 UNL1     0.0348
     72 H         1.952192   2.601777   -1.750053 H        1 UNL1     0.0602
     73 H         -2.222072   0.794492   -3.904253 H        1 UNL1     0.0628
     74 H         -2.125376   3.813588   -3.32431 H        1 UNL1     0.1022
     75 H         7.205509   0.438368   -10.028349 H        1 UNL1     0.0279
     76 H         8.044757   1.734469   -9.27397 H        1 UNL1     0.0279
     77 H         7.678616   0.193567   -8.398265 H        1 UNL1     0.0279
     78 H         5.206227   -0.718209   -9.628191 H        1 UNL1     0.1553
     79 H         5.103324   -1.08226   -7.683171 H        1 UNL1     0.1484
     80 H         2.653889   -2.588054   -5.198751 H        1 UNL1     0.0317
     81 H         2.325814   -2.501686   -6.923522 H        1 UNL1     0.0317
     82 H         4.705799   -3.082096   -7.464356 H        1 UNL1     0.0428
     83 H         3.925606   -4.288461   -6.465513 H        1 UNL1     0.0428
     84 H         6.484256   -1.533053   -4.474491 H        1 UNL1     0.0428
     85 H         6.354409   -1.359422   -6.18975 H        1 UNL1     0.0428
     86 H         4.984087   0.185693   -4.789861 H        1 UNL1     0.0317
     87 H         4.115195   -1.08554   -4.060926 H        1 UNL1     0.0317
     88 H         6.033441   -4.870846   -4.753182 H        1 UNL1     0.0429
     89 H         6.437124   -4.526648   -6.436869 H        1 UNL1     0.0429
     90 H         7.776173   -3.669651   -3.884353 H        1 UNL1     0.0308
     91 H         9.814986   -3.73463   -5.325094 H        1 UNL1     0.0233
     92 H         8.856916   -5.221384   -5.542262 H        1 UNL1     0.0233
     93 H         8.835527   -3.971274   -6.767566 H        1 UNL1     0.0233
     94 H         6.979829   -1.687266   -5.925691 H        1 UNL1     0.0233
     95 H         7.341905   -1.499577   -4.202902 H        1 UNL1     0.0233
     96 H         8.668538   -1.605499   -5.383078 H        1 UNL1     0.0233
     97 H         -3.114103   2.281414   -9.835088 H        1 UNL1     0.0280
     98 H         -2.378997   3.83749   -10.10974 H        1 UNL1     0.0280
     99 H         -2.213369   2.548706   -11.339103 H        1 UNL1     0.0280
     100 H         -0.346884   2.402713   -12.063214 H        1 UNL1     0.2922
     101 H         2.763786   4.287377   -2.085943 H        1 UNL1     0.0236
     102 H         3.977114   4.621822   -3.382879 H        1 UNL1     0.0236
     103 H         4.432451   3.847361   -1.896819 H        1 UNL1     0.0236
     104 H         3.429001   1.454065   -0.01114 H        1 UNL1     0.2098
     105 H         1.291486   -0.575464   -1.005829 H        1 UNL1     0.0234
     106 H         1.464705   -0.365768   0.759708 H        1 UNL1     0.0234
     107 H         0.0   0.0   0.0 H        1 UNL1     0.0234
     108 H         -0.55836   4.110758   -0.814699 H        1 UNL1     0.2098
     109 H         -1.658234   -1.339757   -2.722686 H        1 UNL1     0.0234
     110 H         -0.615849   0.118075   -2.69169 H        1 UNL1     0.0234
     111 H         -0.485315   -1.0768   -1.449081 H        1 UNL1     0.0234
     112 H         0.790067   0.055914   3.121302 H        1 UNL1     0.0342
     113 H         1.018756   -0.830748   1.572183 H        1 UNL1     0.0342
     114 H         0.280836   0.773413   1.582662 H        1 UNL1     0.0342
     115 H         -2.313856   3.547876   1.940942 H        1 UNL1     0.0234
     116 H         -2.877893   3.497245   0.267596 H        1 UNL1     0.0234
     117 H         -3.494111   2.398   1.51883 H        1 UNL1     0.0234
     118 H         -1.985107   0.073863   -5.388166 H        1 UNL1     0.0309
     119 H         -3.469696   0.937833   -5.895723 H        1 UNL1     0.0309
     120 H         -2.361323   0.25087   -7.062663 H        1 UNL1     0.0309
     121 H         -4.000595   4.416781   -1.443761 H        1 UNL1     0.0524
     122 H         -3.113097   3.957842   -2.902725 H        1 UNL1     0.0524
     123 H         -4.711008   3.239027   -2.580659 H        1 UNL1     0.0524
@<TRIPOS>BOND
     1     1     2    1
     2     1    42    1
     3     2     3    2
     4     3     4    1
     5     4     5    2
     6     5     7    1
     7     6    75    1
     8     6    76    1
     9     6    77    1
    10     7     9   am
    11     9    10    1
    12    10    11    2
    13    10    43    1
    14    11    14    1
    15    11    15    1
    16    12    13   ar
    17    12    27   ar
    18    12    43    1
    19    13    14    1
    20    13    30   ar
    21    14    17    2
    22    15    16    1
    23    16    17    1
    24    16    18    1
    25    16    22    1
    26    18    19    1
    27    19    20    1
    28    20    21    1
    29    21    22    1
    30    23    24    1
    31    23    88    1
    32    23    89    1
    33    24    25    1
    34    24    26    1
    35    24    90    1
    36    25    91    1
    37    25    92    1
    38    25    93    1
    39    26    94    1
    40    26    95    1
    41    26    96    1
    42    27    28   ar
    43    28    29   ar
    44    29    30   ar
    45    29    31    1
    46    30    33    1
    47    31    32    1
    48    32    33    1
    49    32    35    1
    50    34    97    1
    51    34    98    1
    52    34    99    1
    53    35    61    1
    54    36    37    1
    55    36    60    1
    56    37    38    1
    57    38    39    1
    58    39    40    1
    59    40    41    1
    60    41    42    1
    61    45   100    1
    62    47   101    1
    63    47   102    1
    64    47   103    1
    65    48   104    1
    66    49   105    1
    67    49   106    1
    68    49   107    1
    69    50   108    1
    70    51    59    1
    71    52   109    1
    72    52   110    1
    73    52   111    1
    74    53    54    1
    75    54    55    2
    76    54    56    1
    77    56   112    1
    78    56   113    1
    79    56   114    1
    80    57   115    1
    81    57   116    1
    82    57   117    1
    83    58   118    1
    84    58   119    1
    85    58   120    1
    86    59   121    1
    87    59   122    1
    88    59   123    1
    89    60    61    2
    90     1    47    1
    91     1    62    1
    92     2    63    1
    93     3    64    1
    94     4    65    1
    95     5     6    1
    96     7     8    2
    97     9    78    1
    98    15    79    1
    99    18    80    1
   100    18    81    1
   101    19    82    1
   102    19    83    1
   103    20    23    1
   104    21    84    1
   105    21    85    1
   106    22    86    1
   107    22    87    1
   108    27    45    1
   109    28    34    1
   110    32    58    1
   111    33    46    2
   112    36    51    1
   113    36    66    1
   114    37    52    1
   115    37    67    1
   116    38    53    1
   117    38    68    1
   118    42    48    1
   119    42    72    1
   120    43    44    2
   121    60    73    1
   122    61    74    1
   123    39    69    1
   124    39    57    1
   125    40    70    1
   126    40    50    1
   127    41    71    1
   128    41    49    1
