@<TRIPOS>MOLECULE
*****
 123 128 0 0 0
SMALL
GASTEIGER

@<TRIPOS>ATOM
     1 C         3.63624   2.726571   1.368339 C.3        1 UNL1     0.0009
     2 C         5.337935   3.158519   0.772778 C.2        1 UNL1     -0.0787
     3 C         6.743377   2.835588   0.644345 C.2        1 UNL1     -0.0649
     4 C         7.930965   3.681292   -0.216339 C.2        1 UNL1     -0.0542
     5 C         9.211008   3.596312   -0.81746 C.2        1 UNL1     0.0115
     6 C         10.476285   2.706139   -0.958842 C.3        1 UNL1     -0.0348
     7 C         9.638108   4.706184   -1.895773 C.2        1 UNL1     0.2441
     8 O         10.39052   5.634302   -1.633097 O.2        1 UNL1     -0.2702
     9 N         9.301252   4.39633   -3.224934 N.am        1 UNL1     -0.2772
     10 C         8.031025   4.839277   -3.514146 C.2        1 UNL1     0.1049
     11 C         7.040534   4.04645   -3.1473 C.2        1 UNL1     0.0801
     12 C         6.542031   6.842111   -3.344186 C.ar        1 UNL1     0.0753
     13 C         5.570626   5.972312   -2.753904 C.ar        1 UNL1     0.0305
     14 C         5.740388   4.521031   -2.757724 C.2        1 UNL1     0.0924
     15 N         7.066738   2.772099   -2.720835 N.pl3        1 UNL1     -0.3170
     16 C         5.706228   2.315642   -2.616361 C.3        1 UNL1     0.1275
     17 N         4.906899   3.567903   -2.350577 N.2        1 UNL1     -0.2557
     18 C         5.284765   1.829888   -3.999876 C.3        1 UNL1     0.0016
     19 C         6.269347   0.768093   -4.463316 C.3        1 UNL1     0.0026
     20 N         6.266072   -0.32486   -3.500782 N.3        1 UNL1     -0.3018
     21 C         6.599528   0.055849   -2.126651 C.3        1 UNL1     0.0026
     22 C         5.595287   1.119709   -1.679887 C.3        1 UNL1     0.0016
     23 C         6.936703   -1.511742   -3.992927 C.3        1 UNL1     0.0012
     24 C         7.629523   -1.222024   -5.333756 C.3        1 UNL1     -0.0339
     25 C         6.95568   -0.055199   -6.074372 C.3        1 UNL1     -0.0615
     26 C         9.109104   -0.962132   -5.109981 C.3        1 UNL1     -0.0615
     27 C         6.317041   8.213043   -3.444397 C.ar        1 UNL1     0.1347
     28 C         5.146703   8.821743   -3.027453 C.ar        1 UNL1     0.0342
     29 C         4.225217   7.952946   -2.405184 C.ar        1 UNL1     0.1435
     30 C         4.452432   6.58328   -2.265156 C.ar        1 UNL1     0.0774
     31 O         2.99312   8.373472   -2.044487 O.3        1 UNL1     -0.4436
     32 C         2.223932   7.168918   -1.909319 C.3        1 UNL1     0.3143
     33 C         3.241644   6.075516   -1.654472 C.2        1 UNL1     0.2504
     34 C         4.732195   10.235088   -3.328682 C.3        1 UNL1     -0.0327
     35 O         1.440153   7.295599   -0.716468 O.2        1 UNL1     -0.4528
     36 C         -1.714821   5.274664   -1.324784 C.3        1 UNL1     0.0854
     37 C         -1.864679   3.749529   -1.697649 C.3        1 UNL1     0.0236
     38 C         -2.802252   2.901507   -0.710958 C.3        1 UNL1     0.1131
     39 C         -2.561597   2.968139   0.851065 C.3        1 UNL1     0.0200
     40 C         -1.014541   2.900984   1.471184 C.3        1 UNL1     0.0661
     41 C         0.167174   1.751481   1.071432 C.3        1 UNL1     0.0091
     42 C         1.993303   1.903102   0.983872 C.3        1 UNL1     0.0661
     43 C         7.758736   6.224054   -3.927189 C.2        1 UNL1     0.2131
     44 O         8.447507   6.763081   -4.77441 O.2        1 UNL1     -0.2851
     45 O         7.332562   8.995197   -3.990649 O.3        1 UNL1     -0.5056
     46 O         3.09245   5.030573   -1.061439 O.2        1 UNL1     -0.2836
     47 C         3.533992   2.931823   2.903721 C.3        1 UNL1     -0.0566
     48 O         2.24734   0.661471   1.753894 O.3        1 UNL1     -0.3909
     49 C         -0.274037   1.00967   -0.17056 C.3        1 UNL1     -0.0577
     50 O         -0.437566   4.190361   1.519466 O.3        1 UNL1     -0.3910
     51 O         -2.271389   5.664443   -0.089578 O.3        1 UNL1     -0.3753
     52 C         -0.544071   3.164508   -2.29656 C.3        1 UNL1     -0.0564
     53 O         -3.21016   1.56889   -1.267796 O.3        1 UNL1     -0.4608
     54 C         -3.801388   0.557395   -0.556983 C.2        1 UNL1     0.3042
     55 O         -3.831579   0.422331   0.66559 O.2        1 UNL1     -0.2512
     56 C         -4.525289   -0.438843   -1.417326 C.3        1 UNL1     0.0332
     57 C         -3.555608   4.071174   1.445565 C.3        1 UNL1     -0.0567
     58 C         1.556921   6.919506   -3.282061 C.3        1 UNL1     0.0210
     59 C         -3.665166   5.967255   -0.129055 C.3        1 UNL1     0.0372
     60 C         -0.320327   5.794178   -1.350278 C.2        1 UNL1     -0.0208
     61 C         0.328226   6.572403   -0.482815 C.2        1 UNL1     0.0882
     62 H         3.261016   3.646502   0.903962 H        1 UNL1     0.0365
     63 H         5.163245   4.15553   0.362997 H        1 UNL1     0.0576
     64 H         7.143395   1.876458   0.980741 H        1 UNL1     0.0615
     65 H         7.459815   4.643799   -0.433316 H        1 UNL1     0.0622
     66 H         -2.249666   5.807882   -2.123324 H        1 UNL1     0.0645
     67 H         -2.468787   3.75752   -2.621527 H        1 UNL1     0.0362
     68 H         -3.760566   3.415645   -0.880721 H        1 UNL1     0.0741
     69 H         -3.039681   2.114947   1.313566 H        1 UNL1     0.0359
     70 H         -1.242667   2.660317   2.527166 H        1 UNL1     0.0600
     71 H         -0.026175   0.994433   1.856576 H        1 UNL1     0.0348
     72 H         1.648441   2.744573   1.602186 H        1 UNL1     0.0602
     73 H         0.124224   5.555624   -2.28447 H        1 UNL1     0.0628
     74 H         -0.032629   6.81522   0.517215 H        1 UNL1     0.1022
     75 H         10.883062   2.4405   0.046645 H        1 UNL1     0.0279
     76 H         10.334404   1.730963   -1.419244 H        1 UNL1     0.0279
     77 H         11.327299   3.243958   -1.401817 H        1 UNL1     0.0279
     78 H         9.310294   3.386657   -3.353603 H        1 UNL1     0.1553
     79 H         7.83891   2.149594   -2.873052 H        1 UNL1     0.1484
     80 H         4.264143   1.432471   -3.94369 H        1 UNL1     0.0317
     81 H         5.259265   2.659271   -4.714805 H        1 UNL1     0.0317
     82 H         7.281364   1.17953   -4.591588 H        1 UNL1     0.0428
     83 H         5.951204   0.436896   -5.452328 H        1 UNL1     0.0428
     84 H         6.512138   -0.766781   -1.410094 H        1 UNL1     0.0428
     85 H         7.6454   0.379879   -2.034602 H        1 UNL1     0.0428
     86 H         5.785178   1.276151   -0.634202 H        1 UNL1     0.0317
     87 H         4.579633   0.70578   -1.694246 H        1 UNL1     0.0317
     88 H         7.701104   -1.800861   -3.259854 H        1 UNL1     0.0429
     89 H         6.240318   -2.355558   -4.081225 H        1 UNL1     0.0429
     90 H         7.574763   -2.115589   -5.96681 H        1 UNL1     0.0308
     91 H         7.682793   0.71533   -6.347676 H        1 UNL1     0.0233
     92 H         6.45243   -0.409702   -6.976966 H        1 UNL1     0.0233
     93 H         6.185203   0.43545   -5.46736 H        1 UNL1     0.0233
     94 H         9.31007   -0.817732   -4.04293 H        1 UNL1     0.0233
     95 H         9.694901   -1.820655   -5.45019 H        1 UNL1     0.0233
     96 H         9.443605   -0.070917   -5.648323 H        1 UNL1     0.0233
     97 H         5.458882   10.958024   -2.970183 H        1 UNL1     0.0280
     98 H         4.634318   10.416757   -4.406955 H        1 UNL1     0.0280
     99 H         3.765325   10.447429   -2.843741 H        1 UNL1     0.0280
     100 H         7.795667   8.592951   -4.70434 H        1 UNL1     0.2922
     101 H         3.879982   2.035637   3.418308 H        1 UNL1     0.0236
     102 H         2.539258   3.232843   3.230638 H        1 UNL1     0.0236
     103 H         4.201564   3.734235   3.259636 H        1 UNL1     0.0236
     104 H         1.38342   0.236965   1.922443 H        1 UNL1     0.2098
     105 H         -1.345302   1.037326   -0.353421 H        1 UNL1     0.0234
     106 H         0.270824   1.274254   -1.076678 H        1 UNL1     0.0234
     107 H         0.0   0.0   0.0 H        1 UNL1     0.0234
     108 H         0.091501   4.240936   2.338794 H        1 UNL1     0.2098
     109 H         -0.683594   2.152541   -2.701738 H        1 UNL1     0.0234
     110 H         -0.096991   3.807417   -3.062413 H        1 UNL1     0.0234
     111 H         0.240796   3.073713   -1.533877 H        1 UNL1     0.0234
     112 H         -4.348011   -1.451793   -1.043359 H        1 UNL1     0.0342
     113 H         -5.591525   -0.226818   -1.480794 H        1 UNL1     0.0342
     114 H         -4.112744   -0.378123   -2.433832 H        1 UNL1     0.0342
     115 H         -4.183683   3.6639   2.249827 H        1 UNL1     0.0234
     116 H         -3.052217   4.956733   1.838543 H        1 UNL1     0.0234
     117 H         -4.322004   4.406397   0.725701 H        1 UNL1     0.0234
     118 H         1.095412   5.918354   -3.34298 H        1 UNL1     0.0309
     119 H         0.808151   7.675312   -3.539553 H        1 UNL1     0.0309
     120 H         2.279149   6.915223   -4.105757 H        1 UNL1     0.0309
     121 H         -4.029427   5.978014   0.89786 H        1 UNL1     0.0524
     122 H         -3.865225   6.961227   -0.562683 H        1 UNL1     0.0524
     123 H         -4.196589   5.21681   -0.70743 H        1 UNL1     0.0524
@<TRIPOS>BOND
     1     1     2    1
     2     1    42    1
     3     2     3    2
     4     3     4    1
     5     4     5    2
     6     5     7    1
     7     6    75    1
     8     6    76    1
     9     6    77    1
    10     7     9   am
    11     9    10    1
    12    10    11    2
    13    10    43    1
    14    11    14    1
    15    11    15    1
    16    12    13   ar
    17    12    27   ar
    18    12    43    1
    19    13    14    1
    20    13    30   ar
    21    14    17    2
    22    15    16    1
    23    16    17    1
    24    16    18    1
    25    16    22    1
    26    18    19    1
    27    19    20    1
    28    20    21    1
    29    21    22    1
    30    23    24    1
    31    23    88    1
    32    23    89    1
    33    24    25    1
    34    24    26    1
    35    24    90    1
    36    25    91    1
    37    25    92    1
    38    25    93    1
    39    26    94    1
    40    26    95    1
    41    26    96    1
    42    27    28   ar
    43    28    29   ar
    44    29    30   ar
    45    29    31    1
    46    30    33    1
    47    31    32    1
    48    32    33    1
    49    32    35    1
    50    34    97    1
    51    34    98    1
    52    34    99    1
    53    35    61    1
    54    36    37    1
    55    36    60    1
    56    37    38    1
    57    38    39    1
    58    39    40    1
    59    40    41    1
    60    41    42    1
    61    45   100    1
    62    47   101    1
    63    47   102    1
    64    47   103    1
    65    48   104    1
    66    49   105    1
    67    49   106    1
    68    49   107    1
    69    50   108    1
    70    51    59    1
    71    52   109    1
    72    52   110    1
    73    52   111    1
    74    53    54    1
    75    54    55    2
    76    54    56    1
    77    56   112    1
    78    56   113    1
    79    56   114    1
    80    57   115    1
    81    57   116    1
    82    57   117    1
    83    58   118    1
    84    58   119    1
    85    58   120    1
    86    59   121    1
    87    59   122    1
    88    59   123    1
    89    60    61    2
    90     1    47    1
    91     1    62    1
    92     2    63    1
    93     3    64    1
    94     4    65    1
    95     5     6    1
    96     7     8    2
    97     9    78    1
    98    15    79    1
    99    18    80    1
   100    18    81    1
   101    19    82    1
   102    19    83    1
   103    20    23    1
   104    21    84    1
   105    21    85    1
   106    22    86    1
   107    22    87    1
   108    27    45    1
   109    28    34    1
   110    32    58    1
   111    33    46    2
   112    36    51    1
   113    36    66    1
   114    37    52    1
   115    37    67    1
   116    38    53    1
   117    38    68    1
   118    42    48    1
   119    42    72    1
   120    43    44    2
   121    60    73    1
   122    61    74    1
   123    39    69    1
   124    39    57    1
   125    40    70    1
   126    40    50    1
   127    41    71    1
   128    41    49    1
