@<TRIPOS>MOLECULE
*****
 123 128 0 0 0
SMALL
GASTEIGER

@<TRIPOS>ATOM
     1 C         -5.12445   -1.886445   -0.207169 C.3        1 UNL1     0.0009
     2 C         -6.803214   -1.808423   0.575584 C.2        1 UNL1     -0.0787
     3 C         -7.834802   -2.405263   1.397566 C.2        1 UNL1     -0.0649
     4 C         -9.290911   -1.708873   1.908589 C.2        1 UNL1     -0.0542
     5 C         -10.340451   -1.777236   2.857731 C.2        1 UNL1     0.0115
     6 C         -10.956871   -2.645014   3.989239 C.3        1 UNL1     -0.0348
     7 C         -11.285571   -0.496221   3.064465 C.2        1 UNL1     0.2441
     8 O         -12.410811   -0.416169   2.591231 O.2        1 UNL1     -0.2702
     9 N         -10.839418   0.413808   4.038604 N.am        1 UNL1     -0.2772
     10 C         -9.986657   1.33707   3.478507 C.2        1 UNL1     0.1049
     11 C         -8.727372   0.961474   3.346787 C.2        1 UNL1     0.0801
     12 C         -9.75898   2.912242   1.548655 C.ar        1 UNL1     0.0753
     13 C         -8.475406   2.321894   1.319447 C.ar        1 UNL1     0.0305
     14 C         -7.864122   1.418425   2.291623 C.2        1 UNL1     0.0924
     15 N         -8.084836   -0.101648   3.860059 N.pl3        1 UNL1     -0.3170
     16 C         -6.685551   0.042517   3.557617 C.3        1 UNL1     0.1275
     17 N         -6.655231   0.863889   2.291855 N.2        1 UNL1     -0.2557
     18 C         -6.075647   0.919979   4.646552 C.3        1 UNL1     0.0016
     19 C         -6.363745   0.28762   5.998851 C.3        1 UNL1     0.0026
     20 N         -5.789431   -1.050545   6.021366 N.3        1 UNL1     -0.3018
     21 C         -6.269505   -1.950898   4.971004 C.3        1 UNL1     0.0026
     22 C         -5.965739   -1.298137   3.621365 C.3        1 UNL1     0.0016
     23 C         -5.744449   -1.622599   7.352296 C.3        1 UNL1     0.0012
     24 C         -4.377372   -2.27469   7.612357 C.3        1 UNL1     -0.0339
     25 C         -3.962038   -3.192525   6.450835 C.3        1 UNL1     -0.0615
     26 C         -3.332859   -1.205227   7.880727 C.3        1 UNL1     -0.0615
     27 C         -10.281481   3.864571   0.676772 C.ar        1 UNL1     0.1347
     28 C         -9.598849   4.333283   -0.431548 C.ar        1 UNL1     0.0342
     29 C         -8.358336   3.702325   -0.664323 C.ar        1 UNL1     0.1435
     30 C         -7.83831   2.720877   0.180397 C.ar        1 UNL1     0.0774
     31 O         -7.525064   4.124533   -1.640235 O.3        1 UNL1     -0.4436
     32 C         -6.240625   3.599036   -1.27289 C.3        1 UNL1     0.3143
     33 C         -6.539012   2.412148   -0.379315 C.2        1 UNL1     0.2504
     34 C         -9.982116   5.524795   -1.264318 C.3        1 UNL1     -0.0327
     35 O         -5.635134   3.08239   -2.464406 O.2        1 UNL1     -0.4528
     36 C         -1.890568   3.476793   -1.984029 C.3        1 UNL1     0.0854
     37 C         -0.96878   2.913917   -0.834683 C.3        1 UNL1     0.0236
     38 C         0.27541   2.034827   -1.33562 C.3        1 UNL1     0.1131
     39 C         0.03859   0.847516   -2.353696 C.3        1 UNL1     0.0200
     40 C         -1.245556   -0.197285   -2.149251 C.3        1 UNL1     0.0661
     41 C         -1.656077   -0.997703   -0.711053 C.3        1 UNL1     0.0091
     42 C         -3.293909   -1.498277   -0.053532 C.3        1 UNL1     0.0661
     43 C         -10.476663   2.542707   2.793899 C.2        1 UNL1     0.2131
     44 O         -11.347197   3.228911   3.297915 O.2        1 UNL1     -0.2851
     45 O         -11.556949   4.355946   0.947273 O.3        1 UNL1     -0.5056
     46 O         -5.86595   1.423814   -0.189481 O.2        1 UNL1     -0.2836
     47 C         -5.140877   -2.850962   -1.423483 C.3        1 UNL1     -0.0566
     48 O         -2.862156   -2.874541   0.290854 O.3        1 UNL1     -0.3909
     49 C         -0.8956   -0.365667   0.433368 C.3        1 UNL1     -0.0577
     50 O         -2.409744   0.31245   -2.767765 O.3        1 UNL1     -0.3910
     51 O         -1.616005   3.001298   -3.282471 O.3        1 UNL1     -0.3753
     52 C         -1.792393   2.538096   0.440217 C.3        1 UNL1     -0.0564
     53 O         1.316749   1.810649   -0.278415 O.3        1 UNL1     -0.4608
     54 C         2.554928   2.396928   -0.244969 C.2        1 UNL1     0.3042
     55 O         2.961634   3.323649   -0.944696 O.2        1 UNL1     -0.2512
     56 C         3.45461   1.841688   0.822268 C.3        1 UNL1     0.0332
     57 C         0.313525   1.411615   -3.824878 C.3        1 UNL1     -0.0567
     58 C         -5.544264   4.694116   -0.431814 C.3        1 UNL1     0.0210
     59 C         -2.642078   2.190668   -3.853362 C.3        1 UNL1     0.0372
     60 C         -3.35155   3.299571   -1.762024 C.2        1 UNL1     -0.0208
     61 C         -4.308763   2.887992   -2.594544 C.2        1 UNL1     0.0882
     62 H         -5.284499   -0.877378   -0.605767 H        1 UNL1     0.0365
     63 H         -7.17447   -0.865983   0.167606 H        1 UNL1     0.0576
     64 H         -7.675762   -3.35262   1.917496 H        1 UNL1     0.0615
     65 H         -9.390746   -0.821281   1.277959 H        1 UNL1     0.0622
     66 H         -1.713588   4.561512   -1.973509 H        1 UNL1     0.0645
     67 H         -0.459277   3.808862   -0.43714 H        1 UNL1     0.0362
     68 H         0.825104   2.800878   -1.903533 H        1 UNL1     0.0741
     69 H         0.89218   0.183752   -2.318911 H        1 UNL1     0.0359
     70 H         -0.923212   -1.026702   -2.807447 H        1 UNL1     0.0600
     71 H         -1.094929   -1.942734   -0.848847 H        1 UNL1     0.0348
     72 H         -3.436701   -1.336021   -1.131771 H        1 UNL1     0.0602
     73 H         -3.608662   3.683514   -0.806132 H        1 UNL1     0.0628
     74 H         -4.125169   2.428558   -3.566373 H        1 UNL1     0.1022
     75 H         -10.295253   -3.514175   4.221308 H        1 UNL1     0.0279
     76 H         -11.067013   -2.168478   4.960759 H        1 UNL1     0.0279
     77 H         -11.881779   -3.153235   3.679467 H        1 UNL1     0.0279
     78 H         -10.321319   -0.083783   4.759751 H        1 UNL1     0.1553
     79 H         -8.419871   -0.629285   4.645097 H        1 UNL1     0.1484
     80 H         -4.997329   1.012282   4.469137 H        1 UNL1     0.0317
     81 H         -6.487544   1.934142   4.608272 H        1 UNL1     0.0317
     82 H         -7.442176   0.259176   6.213536 H        1 UNL1     0.0428
     83 H         -5.921725   0.930253   6.760882 H        1 UNL1     0.0428
     84 H         -5.764769   -2.921958   4.961167 H        1 UNL1     0.0428
     85 H         -7.330823   -2.203181   5.102439 H        1 UNL1     0.0428
     86 H         -6.207117   -2.038105   2.880978 H        1 UNL1     0.0317
     87 H         -4.883207   -1.165741   3.504353 H        1 UNL1     0.0317
     88 H         -5.888346   -0.811282   8.077798 H        1 UNL1     0.0429
     89 H         -6.560952   -2.339904   7.505826 H        1 UNL1     0.0429
     90 H         -4.434009   -2.874608   8.528384 H        1 UNL1     0.0308
     91 H         -3.84445   -2.628498   5.520701 H        1 UNL1     0.0233
     92 H         -3.025134   -3.705663   6.679982 H        1 UNL1     0.0233
     93 H         -4.701252   -3.978656   6.254885 H        1 UNL1     0.0233
     94 H         -2.341271   -1.660958   7.975055 H        1 UNL1     0.0233
     95 H         -3.300599   -0.497135   7.047945 H        1 UNL1     0.0233
     96 H         -3.550356   -0.657228   8.801792 H        1 UNL1     0.0233
     97 H         -9.334304   5.643846   -2.127682 H        1 UNL1     0.0280
     98 H         -11.001571   5.440451   -1.662882 H        1 UNL1     0.0280
     99 H         -9.914587   6.439496   -0.65288 H        1 UNL1     0.0280
     100 H         -12.019433   4.680082   0.1945 H        1 UNL1     0.2922
     101 H         -5.860284   -2.49866   -2.162396 H        1 UNL1     0.0236
     102 H         -5.31625   -3.889471   -1.144686 H        1 UNL1     0.0236
     103 H         -4.175314   -2.862213   -1.956169 H        1 UNL1     0.0236
     104 H         -3.443966   -3.195582   1.007374 H        1 UNL1     0.2098
     105 H         -1.404752   0.472605   0.902277 H        1 UNL1     0.0234
     106 H         -0.546688   -1.067376   1.190858 H        1 UNL1     0.0234
     107 H         0.0   0.0   0.0 H        1 UNL1     0.0234
     108 H         -2.38541   0.036184   -3.70417 H        1 UNL1     0.2098
     109 H         -1.457079   1.592273   0.888207 H        1 UNL1     0.0234
     110 H         -1.789967   3.325388   1.201735 H        1 UNL1     0.0234
     111 H         -2.856176   2.396103   0.207516 H        1 UNL1     0.0234
     112 H         3.798216   2.648805   1.476364 H        1 UNL1     0.0342
     113 H         2.97074   1.052841   1.396231 H        1 UNL1     0.0342
     114 H         4.336843   1.40499   0.334288 H        1 UNL1     0.0342
     115 H         -0.330766   2.269933   -4.06018 H        1 UNL1     0.0234
     116 H         1.34679   1.719934   -3.996203 H        1 UNL1     0.0234
     117 H         0.031033   0.707151   -4.626047 H        1 UNL1     0.0234
     118 H         -6.133533   5.62713   -0.396412 H        1 UNL1     0.0309
     119 H         -5.320026   4.373137   0.590386 H        1 UNL1     0.0309
     120 H         -4.590426   5.014116   -0.865287 H        1 UNL1     0.0309
     121 H         -2.255907   1.777504   -4.784772 H        1 UNL1     0.0524
     122 H         -2.916434   1.343484   -3.202942 H        1 UNL1     0.0524
     123 H         -3.528591   2.787813   -4.04729 H        1 UNL1     0.0524
@<TRIPOS>BOND
     1     1     2    1
     2     1    42    1
     3     2     3    2
     4     3     4    1
     5     4     5    2
     6     5     7    1
     7     6    75    1
     8     6    76    1
     9     6    77    1
    10     7     9   am
    11     9    10    1
    12    10    11    2
    13    10    43    1
    14    11    14    1
    15    11    15    1
    16    12    13   ar
    17    12    27   ar
    18    12    43    1
    19    13    14    1
    20    13    30   ar
    21    14    17    2
    22    15    16    1
    23    16    17    1
    24    16    18    1
    25    16    22    1
    26    18    19    1
    27    19    20    1
    28    20    21    1
    29    21    22    1
    30    23    24    1
    31    23    88    1
    32    23    89    1
    33    24    25    1
    34    24    26    1
    35    24    90    1
    36    25    91    1
    37    25    92    1
    38    25    93    1
    39    26    94    1
    40    26    95    1
    41    26    96    1
    42    27    28   ar
    43    28    29   ar
    44    29    30   ar
    45    29    31    1
    46    30    33    1
    47    31    32    1
    48    32    33    1
    49    32    35    1
    50    34    97    1
    51    34    98    1
    52    34    99    1
    53    35    61    1
    54    36    37    1
    55    36    60    1
    56    37    38    1
    57    38    39    1
    58    39    40    1
    59    40    41    1
    60    41    42    1
    61    45   100    1
    62    47   101    1
    63    47   102    1
    64    47   103    1
    65    48   104    1
    66    49   105    1
    67    49   106    1
    68    49   107    1
    69    50   108    1
    70    51    59    1
    71    52   109    1
    72    52   110    1
    73    52   111    1
    74    53    54    1
    75    54    55    2
    76    54    56    1
    77    56   112    1
    78    56   113    1
    79    56   114    1
    80    57   115    1
    81    57   116    1
    82    57   117    1
    83    58   118    1
    84    58   119    1
    85    58   120    1
    86    59   121    1
    87    59   122    1
    88    59   123    1
    89    60    61    2
    90     1    47    1
    91     1    62    1
    92     2    63    1
    93     3    64    1
    94     4    65    1
    95     5     6    1
    96     7     8    2
    97     9    78    1
    98    15    79    1
    99    18    80    1
   100    18    81    1
   101    19    82    1
   102    19    83    1
   103    20    23    1
   104    21    84    1
   105    21    85    1
   106    22    86    1
   107    22    87    1
   108    27    45    1
   109    28    34    1
   110    32    58    1
   111    33    46    2
   112    36    51    1
   113    36    66    1
   114    37    52    1
   115    37    67    1
   116    38    53    1
   117    38    68    1
   118    42    48    1
   119    42    72    1
   120    43    44    2
   121    60    73    1
   122    61    74    1
   123    39    69    1
   124    39    57    1
   125    40    70    1
   126    40    50    1
   127    41    71    1
   128    41    49    1
