@<TRIPOS>MOLECULE
*****
 123 128 0 0 0
SMALL
GASTEIGER

@<TRIPOS>ATOM
     1 C         1.753901   3.832627   3.283205 C.3        1 UNL1     0.0009
     2 C         2.642016   5.455638   3.402056 C.2        1 UNL1     -0.0787
     3 C         3.870628   6.207376   3.54851 C.2        1 UNL1     -0.0649
     4 C         4.08127   7.884809   3.457939 C.2        1 UNL1     -0.0542
     5 C         5.017213   8.927912   3.250514 C.2        1 UNL1     0.0115
     6 C         6.531406   9.250356   3.121781 C.3        1 UNL1     -0.0348
     7 C         4.478172   10.389992   2.864838 C.2        1 UNL1     0.2441
     8 O         4.409773   11.307926   3.670596 O.2        1 UNL1     -0.2702
     9 N         4.336573   10.620573   1.48537 N.am        1 UNL1     -0.2772
     10 C         3.089347   10.226543   1.05818 C.2        1 UNL1     0.1049
     11 C         2.944589   8.941143   0.791695 C.2        1 UNL1     0.0801
     12 C         0.653981   10.429568   1.592132 C.ar        1 UNL1     0.0753
     13 C         0.59415   9.002761   1.495952 C.ar        1 UNL1     0.0305
     14 C         1.710012   8.22433   0.963086 C.2        1 UNL1     0.0924
     15 N         3.870845   7.975307   0.666246 N.pl3        1 UNL1     -0.3170
     16 C         3.206186   6.786742   0.201709 C.3        1 UNL1     0.1275
     17 N         1.792023   6.920913   0.711476 N.2        1 UNL1     -0.2557
     18 C         3.119189   6.882173   -1.318497 C.3        1 UNL1     0.0016
     19 C         4.520919   7.075657   -1.87465 C.3        1 UNL1     0.0026
     20 N         5.345884   5.94686   -1.466875 N.3        1 UNL1     -0.3018
     21 C         5.440237   5.736048   -0.020837 C.3        1 UNL1     0.0026
     22 C         4.021477   5.539346   0.51612 C.3        1 UNL1     0.0016
     23 C         6.603402   5.879139   -2.184304 C.3        1 UNL1     0.0012
     24 C         6.719438   7.044791   -3.179064 C.3        1 UNL1     -0.0339
     25 C         5.425038   7.873146   -3.228184 C.3        1 UNL1     -0.0615
     26 C         7.921677   7.906316   -2.833846 C.3        1 UNL1     -0.0615
     27 C         -0.455483   11.173504   1.986804 C.ar        1 UNL1     0.1347
     28 C         -1.685546   10.607699   2.271166 C.ar        1 UNL1     0.0342
     29 C         -1.70726   9.197815   2.217139 C.ar        1 UNL1     0.1435
     30 C         -0.593766   8.4371   1.858441 C.ar        1 UNL1     0.0774
     31 O         -2.857925   8.504695   2.360526 O.3        1 UNL1     -0.4436
     32 C         -2.579694   7.217662   1.78868 C.3        1 UNL1     0.3143
     33 C         -1.073101   7.070716   1.857944 C.2        1 UNL1     0.2504
     34 C         -2.977912   11.353541   2.454492 C.3        1 UNL1     -0.0327
     35 O         -3.13585   6.231868   2.667402 O.2        1 UNL1     -0.4528
     36 C         -4.088672   3.292096   0.463325 C.3        1 UNL1     0.0854
     37 C         -3.184256   2.442271   -0.509995 C.3        1 UNL1     0.0236
     38 C         -3.201791   0.861396   -0.241162 C.3        1 UNL1     0.1131
     39 C         -2.944235   0.310403   1.219092 C.3        1 UNL1     0.0200
     40 C         -1.726343   0.951595   2.161456 C.3        1 UNL1     0.0661
     41 C         -0.116521   1.185678   1.680532 C.3        1 UNL1     0.0091
     42 C         1.095478   2.473983   2.167085 C.3        1 UNL1     0.0661
     43 C         1.910345   11.098024   1.171445 C.2        1 UNL1     0.2131
     44 O         1.970593   12.266309   0.833487 O.2        1 UNL1     -0.2851
     45 O         -0.30008   12.553623   2.09888 O.3        1 UNL1     -0.5056
     46 O         -0.417175   6.055026   1.921102 O.2        1 UNL1     -0.2836
     47 C         1.66597   3.16242   4.680729 C.3        1 UNL1     -0.0566
     48 O         2.192732   1.508524   2.418158 O.3        1 UNL1     -0.3909
     49 C         -0.030921   1.044651   0.17711 C.3        1 UNL1     -0.0577
     50 O         -2.186748   2.081689   2.874644 O.3        1 UNL1     -0.3910
     51 O         -4.65678   2.590598   1.546185 O.3        1 UNL1     -0.3753
     52 C         -1.876537   3.204157   -0.90287 C.3        1 UNL1     -0.0564
     53 O         -2.631246   0.053853   -1.370179 O.3        1 UNL1     -0.4608
     54 C         -2.698592   -1.309988   -1.485639 C.2        1 UNL1     0.3042
     55 O         -1.880893   -2.055236   -2.023984 O.2        1 UNL1     -0.2512
     56 C         -3.899277   -1.911937   -0.812789 C.3        1 UNL1     0.0332
     57 C         -4.370212   0.073774   1.903762 C.3        1 UNL1     -0.0567
     58 C         -3.005437   7.297341   0.304118 C.3        1 UNL1     0.0210
     59 C         -5.422484   1.443183   1.18149 C.3        1 UNL1     0.0372
     60 C         -3.436032   4.503088   1.031408 C.2        1 UNL1     -0.0208
     61 C         -3.427222   4.975742   2.278511 C.2        1 UNL1     0.0882
     62 H         0.81421   4.379236   3.138593 H        1 UNL1     0.0365
     63 H         1.799358   6.150099   3.391084 H        1 UNL1     0.0576
     64 H         4.844554   5.713404   3.572342 H        1 UNL1     0.0615
     65 H         3.063347   8.279035   3.520402 H        1 UNL1     0.0622
     66 H         -4.906911   3.660475   -0.171363 H        1 UNL1     0.0645
     67 H         -3.703568   2.505368   -1.48205 H        1 UNL1     0.0362
     68 H         -4.261914   0.651114   -0.449594 H        1 UNL1     0.0741
     69 H         -2.668571   -0.733684   1.153523 H        1 UNL1     0.0359
     70 H         -1.639834   0.157431   2.927537 H        1 UNL1     0.0600
     71 H         0.326236   0.226668   2.014035 H        1 UNL1     0.0348
     72 H         0.320758   2.476239   2.947546 H        1 UNL1     0.0602
     73 H         -3.027747   5.082948   0.241272 H        1 UNL1     0.0628
     74 H         -3.77236   4.420025   3.151033 H        1 UNL1     0.1022
     75 H         6.679841   10.283994   2.726062 H        1 UNL1     0.0279
     76 H         7.103756   9.269105   4.046515 H        1 UNL1     0.0279
     77 H         7.030133   8.648332   2.348128 H        1 UNL1     0.0279
     78 H         5.023487   10.070098   0.974288 H        1 UNL1     0.1553
     79 H         4.843725   8.15502   0.498489 H        1 UNL1     0.1484
     80 H         2.656383   5.967474   -1.708244 H        1 UNL1     0.0317
     81 H         2.474169   7.713698   -1.622086 H        1 UNL1     0.0317
     82 H         4.961952   8.027818   -1.544815 H        1 UNL1     0.0428
     83 H         4.435533   7.143037   -2.959647 H        1 UNL1     0.0428
     84 H         5.998983   4.836545   0.255762 H        1 UNL1     0.0428
     85 H         5.983782   6.551237   0.476499 H        1 UNL1     0.0428
     86 H         4.138214   5.25707   1.546013 H        1 UNL1     0.0317
     87 H         3.567752   4.651281   0.059425 H        1 UNL1     0.0317
     88 H         7.418457   5.961014   -1.453363 H        1 UNL1     0.0429
     89 H         6.7218   4.912764   -2.691133 H        1 UNL1     0.0429
     90 H         6.915786   6.644084   -4.18061 H        1 UNL1     0.0308
     91 H         4.991974   7.875094   -4.23295 H        1 UNL1     0.0233
     92 H         4.68932   7.482434   -2.521309 H        1 UNL1     0.0233
     93 H         5.58924   8.921368   -2.950512 H        1 UNL1     0.0233
     94 H         7.847063   8.877263   -3.335375 H        1 UNL1     0.0233
     95 H         7.955616   8.085578   -1.755571 H        1 UNL1     0.0233
     96 H         8.85621   7.42914   -3.141937 H        1 UNL1     0.0233
     97 H         -3.736685   10.742229   2.933859 H        1 UNL1     0.0280
     98 H         -2.857897   12.2388   3.092591 H        1 UNL1     0.0280
     99 H         -3.361884   11.673566   1.472024 H        1 UNL1     0.0280
     100 H         -0.414258   12.89102   2.969942 H        1 UNL1     0.2922
     101 H         2.394655   3.615772   5.352403 H        1 UNL1     0.0236
     102 H         1.763781   2.077989   4.642978 H        1 UNL1     0.0236
     103 H         0.690992   3.339961   5.164558 H        1 UNL1     0.0236
     104 H         1.791286   0.691858   2.774343 H        1 UNL1     0.2098
     105 H         -0.884842   1.44824   -0.36117 H        1 UNL1     0.0234
     106 H         0.898304   1.407356   -0.262108 H        1 UNL1     0.0234
     107 H         0.0   0.0   0.0 H        1 UNL1     0.0234
     108 H         -1.496886   2.314887   3.525395 H        1 UNL1     0.2098
     109 H         -1.02374   2.524345   -1.038162 H        1 UNL1     0.0234
     110 H         -1.99341   3.827592   -1.79585 H        1 UNL1     0.0234
     111 H         -1.570755   3.912773   -0.121648 H        1 UNL1     0.0234
     112 H         -3.870857   -1.698242   0.259998 H        1 UNL1     0.0342
     113 H         -4.832578   -1.566998   -1.255293 H        1 UNL1     0.0342
     114 H         -3.853394   -3.002256   -0.940326 H        1 UNL1     0.0342
     115 H         -5.076768   0.880628   1.665111 H        1 UNL1     0.0234
     116 H         -4.844197   -0.870165   1.62742 H        1 UNL1     0.0234
     117 H         -4.344324   0.132143   3.005517 H        1 UNL1     0.0234
     118 H         -3.098334   8.340606   -0.04513 H        1 UNL1     0.0309
     119 H         -2.331514   6.754042   -0.365849 H        1 UNL1     0.0309
     120 H         -4.004576   6.882979   0.130534 H        1 UNL1     0.0309
     121 H         -5.246644   0.676261   1.935326 H        1 UNL1     0.0524
     122 H         -6.5054   1.650717   1.165374 H        1 UNL1     0.0524
     123 H         -5.117801   1.083567   0.202747 H        1 UNL1     0.0524
@<TRIPOS>BOND
     1     1     2    1
     2     1    42    1
     3     2     3    2
     4     3     4    1
     5     4     5    2
     6     5     7    1
     7     6    75    1
     8     6    76    1
     9     6    77    1
    10     7     9   am
    11     9    10    1
    12    10    11    2
    13    10    43    1
    14    11    14    1
    15    11    15    1
    16    12    13   ar
    17    12    27   ar
    18    12    43    1
    19    13    14    1
    20    13    30   ar
    21    14    17    2
    22    15    16    1
    23    16    17    1
    24    16    18    1
    25    16    22    1
    26    18    19    1
    27    19    20    1
    28    20    21    1
    29    21    22    1
    30    23    24    1
    31    23    88    1
    32    23    89    1
    33    24    25    1
    34    24    26    1
    35    24    90    1
    36    25    91    1
    37    25    92    1
    38    25    93    1
    39    26    94    1
    40    26    95    1
    41    26    96    1
    42    27    28   ar
    43    28    29   ar
    44    29    30   ar
    45    29    31    1
    46    30    33    1
    47    31    32    1
    48    32    33    1
    49    32    35    1
    50    34    97    1
    51    34    98    1
    52    34    99    1
    53    35    61    1
    54    36    37    1
    55    36    60    1
    56    37    38    1
    57    38    39    1
    58    39    40    1
    59    40    41    1
    60    41    42    1
    61    45   100    1
    62    47   101    1
    63    47   102    1
    64    47   103    1
    65    48   104    1
    66    49   105    1
    67    49   106    1
    68    49   107    1
    69    50   108    1
    70    51    59    1
    71    52   109    1
    72    52   110    1
    73    52   111    1
    74    53    54    1
    75    54    55    2
    76    54    56    1
    77    56   112    1
    78    56   113    1
    79    56   114    1
    80    57   115    1
    81    57   116    1
    82    57   117    1
    83    58   118    1
    84    58   119    1
    85    58   120    1
    86    59   121    1
    87    59   122    1
    88    59   123    1
    89    60    61    2
    90     1    47    1
    91     1    62    1
    92     2    63    1
    93     3    64    1
    94     4    65    1
    95     5     6    1
    96     7     8    2
    97     9    78    1
    98    15    79    1
    99    18    80    1
   100    18    81    1
   101    19    82    1
   102    19    83    1
   103    20    23    1
   104    21    84    1
   105    21    85    1
   106    22    86    1
   107    22    87    1
   108    27    45    1
   109    28    34    1
   110    32    58    1
   111    33    46    2
   112    36    51    1
   113    36    66    1
   114    37    52    1
   115    37    67    1
   116    38    53    1
   117    38    68    1
   118    42    48    1
   119    42    72    1
   120    43    44    2
   121    60    73    1
   122    61    74    1
   123    39    69    1
   124    39    57    1
   125    40    70    1
   126    40    50    1
   127    41    71    1
   128    41    49    1
