@<TRIPOS>MOLECULE
*****
 123 128 0 0 0
SMALL
GASTEIGER

@<TRIPOS>ATOM
     1 C         -1.931488   -3.647452   -0.045936 C.3        1 UNL1     0.0009
     2 C         -2.259896   -4.781133   1.383733 C.2        1 UNL1     -0.0787
     3 C         -1.882235   -5.916245   2.199171 C.2        1 UNL1     -0.0649
     4 C         -2.619016   -6.467734   3.620217 C.2        1 UNL1     -0.0542
     5 C         -2.445676   -7.245796   4.791391 C.2        1 UNL1     0.0115
     6 C         -1.506368   -8.262031   5.497289 C.3        1 UNL1     -0.0348
     7 C         -3.453524   -7.031838   6.022429 C.2        1 UNL1     0.2441
     8 O         -4.374252   -7.798451   6.269595 O.2        1 UNL1     -0.2702
     9 N         -3.052096   -6.053996   6.949162 N.am        1 UNL1     -0.2772
     10 C         -3.512353   -4.814293   6.568871 C.2        1 UNL1     0.1049
     11 C         -2.783306   -4.172013   5.674338 C.2        1 UNL1     0.0801
     12 C         -5.569867   -3.607832   5.814935 C.ar        1 UNL1     0.0753
     13 C         -4.780931   -3.099605   4.734244 C.ar        1 UNL1     0.0305
     14 C         -3.329008   -3.26118   4.704818 C.2        1 UNL1     0.0924
     15 N         -1.545929   -4.433813   5.21949 N.pl3        1 UNL1     -0.3170
     16 C         -1.143658   -3.334609   4.382721 C.3        1 UNL1     0.1275
     17 N         -2.438253   -2.77588   3.844605 N.2        1 UNL1     -0.2557
     18 C         -0.565482   -2.258523   5.296751 C.3        1 UNL1     0.0016
     19 C         0.560794   -2.869383   6.115252 C.3        1 UNL1     0.0026
     20 N         1.574646   -3.383888   5.205078 N.3        1 UNL1     -0.3018
     21 C         1.098998   -4.381415   4.244313 C.3        1 UNL1     0.0026
     22 C         -0.028676   -3.745054   3.429885 C.3        1 UNL1     0.0016
     23 C         2.817553   -3.713748   5.873671 C.3        1 UNL1     0.0012
     24 C         4.014825   -3.14422   5.09654 C.3        1 UNL1     -0.0339
     25 C         4.395252   -4.045285   3.910194 C.3        1 UNL1     -0.0615
     26 C         3.716158   -1.72455   4.646968 C.3        1 UNL1     -0.0615
     27 C         -6.935417   -3.345849   5.897147 C.ar        1 UNL1     0.1347
     28 C         -7.612655   -2.558231   4.983333 C.ar        1 UNL1     0.0342
     29 C         -6.825582   -2.109263   3.901618 C.ar        1 UNL1     0.1435
     30 C         -5.464327   -2.393937   3.786871 C.ar        1 UNL1     0.0774
     31 O         -7.312949   -1.242046   2.987608 O.3        1 UNL1     -0.4436
     32 C         -6.148355   -0.672669   2.37084 C.3        1 UNL1     0.3143
     33 C         -5.045532   -1.687612   2.594192 C.2        1 UNL1     0.2504
     34 C         -9.01097   -2.029078   5.140851 C.3        1 UNL1     -0.0327
     35 O         -6.393207   -0.626379   0.959756 O.2        1 UNL1     -0.4528
     36 C         -4.435027   2.354712   -0.338981 C.3        1 UNL1     0.0854
     37 C         -2.89116   2.657523   -0.228059 C.3        1 UNL1     0.0236
     38 C         -2.153739   2.929999   -1.625811 C.3        1 UNL1     0.1131
     39 C         -2.334118   1.909291   -2.820753 C.3        1 UNL1     0.0200
     40 C         -2.265084   0.265536   -2.545536 C.3        1 UNL1     0.0661
     41 C         -1.049949   -0.547793   -1.685565 C.3        1 UNL1     0.0091
     42 C         -1.134598   -2.056709   -0.645655 C.3        1 UNL1     0.0661
     43 C         -4.86884   -4.348302   6.893139 C.2        1 UNL1     0.2131
     44 O         -5.317372   -4.485605   8.01684 O.2        1 UNL1     -0.2851
     45 O         -7.639017   -3.915835   6.956157 O.3        1 UNL1     -0.5056
     46 O         -4.055458   -1.883978   1.925577 O.2        1 UNL1     -0.2836
     47 C         -2.259105   -4.360132   -1.385613 C.3        1 UNL1     -0.0566
     48 O         0.050814   -2.691866   -1.270547 O.3        1 UNL1     -0.3909
     49 C         -0.228316   0.467828   -0.923379 C.3        1 UNL1     -0.0577
     50 O         -3.534779   -0.234775   -2.177722 O.3        1 UNL1     -0.3910
     51 O         -4.937923   2.188601   -1.645478 O.3        1 UNL1     -0.3753
     52 C         -2.218418   1.837227   0.920628 C.3        1 UNL1     -0.0564
     53 O         -0.795772   3.551441   -1.477273 O.3        1 UNL1     -0.4608
     54 C         -0.462147   4.526785   -0.574318 C.2        1 UNL1     0.3042
     55 O         0.305936   5.472491   -0.746146 O.2        1 UNL1     -0.2512
     56 C         -1.188366   4.407728   0.735318 C.3        1 UNL1     0.0332
     57 C         -3.512017   2.460222   -3.751991 C.3        1 UNL1     -0.0567
     58 C         -5.814528   0.610171   3.16734 C.3        1 UNL1     0.0210
     59 C         -3.953725   2.237981   -2.67736 C.3        1 UNL1     0.0372
     60 C         -4.90518   1.186076   0.453739 C.2        1 UNL1     -0.0208
     61 C         -5.727116   0.189941   0.120749 C.2        1 UNL1     0.0882
     62 H         -2.824148   -3.072924   0.229361 H        1 UNL1     0.0365
     63 H         -3.227075   -4.405081   1.723763 H        1 UNL1     0.0576
     64 H         -0.939724   -6.445524   2.042188 H        1 UNL1     0.0615
     65 H         -3.576529   -5.940192   3.638984 H        1 UNL1     0.0622
     66 H         -4.921503   3.234938   0.104402 H        1 UNL1     0.0645
     67 H         -2.846774   3.655476   0.241705 H        1 UNL1     0.0362
     68 H         -2.684069   3.84231   -1.938798 H        1 UNL1     0.0741
     69 H         -1.535661   2.063999   -3.534153 H        1 UNL1     0.0359
     70 H         -2.115093   -0.095066   -3.581166 H        1 UNL1     0.0600
     71 H         -0.363165   -0.803191   -2.516262 H        1 UNL1     0.0348
     72 H         -2.032541   -2.07498   -1.280226 H        1 UNL1     0.0602
     73 H         -4.580103   1.292306   1.45887 H        1 UNL1     0.0628
     74 H         -6.058845   -0.021992   -0.896245 H        1 UNL1     0.1022
     75 H         -0.518698   -7.792048   5.722361 H        1 UNL1     0.0279
     76 H         -1.82421   -8.618661   6.474458 H        1 UNL1     0.0279
     77 H         -1.206956   -9.091736   4.840293 H        1 UNL1     0.0279
     78 H         -2.035707   -6.007574   6.978756 H        1 UNL1     0.1553
     79 H         -0.888579   -5.020568   5.699639 H        1 UNL1     0.1484
     80 H         -0.20718   -1.423044   4.683269 H        1 UNL1     0.0317
     81 H         -1.336961   -1.852331   5.959684 H        1 UNL1     0.0317
     82 H         0.193865   -3.659667   6.786613 H        1 UNL1     0.0428
     83 H         0.957566   -2.085559   6.761195 H        1 UNL1     0.0428
     84 H         1.859937   -4.692138   3.521657 H        1 UNL1     0.0428
     85 H         0.803082   -5.31685   4.738996 H        1 UNL1     0.0428
     86 H         -0.259925   -4.451444   2.654305 H        1 UNL1     0.0317
     87 H         0.351743   -2.877152   2.877505 H        1 UNL1     0.0317
     88 H         2.799887   -3.257388   6.872029 H        1 UNL1     0.0429
     89 H         2.917819   -4.79733   6.017098 H        1 UNL1     0.0429
     90 H         4.877366   -3.070119   5.769403 H        1 UNL1     0.0308
     91 H         4.4761   -5.092642   4.216149 H        1 UNL1     0.0233
     92 H         3.656962   -3.961602   3.109236 H        1 UNL1     0.0233
     93 H         5.359535   -3.76786   3.467443 H        1 UNL1     0.0233
     94 H         4.540423   -1.058959   4.9252 H        1 UNL1     0.0233
     95 H         3.608974   -1.691863   3.559123 H        1 UNL1     0.0233
     96 H         2.797317   -1.3463   5.103723 H        1 UNL1     0.0233
     97 H         -9.633805   -2.261766   4.282268 H        1 UNL1     0.0280
     98 H         -9.522421   -2.463531   6.009715 H        1 UNL1     0.0280
     99 H         -8.9799   -0.933497   5.258453 H        1 UNL1     0.0280
     100 H         -7.128359   -4.485945   7.50372 H        1 UNL1     0.2922
     101 H         -1.963191   -3.726243   -2.221242 H        1 UNL1     0.0236
     102 H         -3.299191   -4.675833   -1.460028 H        1 UNL1     0.0236
     103 H         -1.674377   -5.286038   -1.515939 H        1 UNL1     0.0236
     104 H         0.083768   -3.619538   -0.96508 H        1 UNL1     0.2098
     105 H         0.710422   0.736041   -1.401546 H        1 UNL1     0.0234
     106 H         -0.772341   1.365267   -0.629157 H        1 UNL1     0.0234
     107 H         0.0   0.0   0.0 H        1 UNL1     0.0234
     108 H         -3.977022   0.456884   -1.648763 H        1 UNL1     0.2098
     109 H         -1.687684   0.951797   0.543738 H        1 UNL1     0.0234
     110 H         -1.53964   2.436533   1.536936 H        1 UNL1     0.0234
     111 H         -2.960872   1.457072   1.634904 H        1 UNL1     0.0234
     112 H         -1.05583   3.401458   1.144221 H        1 UNL1     0.0342
     113 H         -0.870311   5.165016   1.450299 H        1 UNL1     0.0342
     114 H         -2.260681   4.5565   0.547776 H        1 UNL1     0.0342
     115 H         -3.55869   1.925559   -4.710712 H        1 UNL1     0.0234
     116 H         -4.502257   2.403204   -3.295678 H        1 UNL1     0.0234
     117 H         -3.353835   3.497515   -4.093961 H        1 UNL1     0.0234
     118 H         -6.219019   1.516058   2.682819 H        1 UNL1     0.0309
     119 H         -6.161044   0.573961   4.205039 H        1 UNL1     0.0309
     120 H         -4.73803   0.807897   3.213846 H        1 UNL1     0.0309
     121 H         -3.612689   3.269704   -2.758593 H        1 UNL1     0.0524
     122 H         -3.073818   1.614701   -2.446439 H        1 UNL1     0.0524
     123 H         -4.381065   1.909107   -3.620396 H        1 UNL1     0.0524
@<TRIPOS>BOND
     1     1     2    1
     2     1    42    1
     3     2     3    2
     4     3     4    1
     5     4     5    2
     6     5     7    1
     7     6    75    1
     8     6    76    1
     9     6    77    1
    10     7     9   am
    11     9    10    1
    12    10    11    2
    13    10    43    1
    14    11    14    1
    15    11    15    1
    16    12    13   ar
    17    12    27   ar
    18    12    43    1
    19    13    14    1
    20    13    30   ar
    21    14    17    2
    22    15    16    1
    23    16    17    1
    24    16    18    1
    25    16    22    1
    26    18    19    1
    27    19    20    1
    28    20    21    1
    29    21    22    1
    30    23    24    1
    31    23    88    1
    32    23    89    1
    33    24    25    1
    34    24    26    1
    35    24    90    1
    36    25    91    1
    37    25    92    1
    38    25    93    1
    39    26    94    1
    40    26    95    1
    41    26    96    1
    42    27    28   ar
    43    28    29   ar
    44    29    30   ar
    45    29    31    1
    46    30    33    1
    47    31    32    1
    48    32    33    1
    49    32    35    1
    50    34    97    1
    51    34    98    1
    52    34    99    1
    53    35    61    1
    54    36    37    1
    55    36    60    1
    56    37    38    1
    57    38    39    1
    58    39    40    1
    59    40    41    1
    60    41    42    1
    61    45   100    1
    62    47   101    1
    63    47   102    1
    64    47   103    1
    65    48   104    1
    66    49   105    1
    67    49   106    1
    68    49   107    1
    69    50   108    1
    70    51    59    1
    71    52   109    1
    72    52   110    1
    73    52   111    1
    74    53    54    1
    75    54    55    2
    76    54    56    1
    77    56   112    1
    78    56   113    1
    79    56   114    1
    80    57   115    1
    81    57   116    1
    82    57   117    1
    83    58   118    1
    84    58   119    1
    85    58   120    1
    86    59   121    1
    87    59   122    1
    88    59   123    1
    89    60    61    2
    90     1    47    1
    91     1    62    1
    92     2    63    1
    93     3    64    1
    94     4    65    1
    95     5     6    1
    96     7     8    2
    97     9    78    1
    98    15    79    1
    99    18    80    1
   100    18    81    1
   101    19    82    1
   102    19    83    1
   103    20    23    1
   104    21    84    1
   105    21    85    1
   106    22    86    1
   107    22    87    1
   108    27    45    1
   109    28    34    1
   110    32    58    1
   111    33    46    2
   112    36    51    1
   113    36    66    1
   114    37    52    1
   115    37    67    1
   116    38    53    1
   117    38    68    1
   118    42    48    1
   119    42    72    1
   120    43    44    2
   121    60    73    1
   122    61    74    1
   123    39    69    1
   124    39    57    1
   125    40    70    1
   126    40    50    1
   127    41    71    1
   128    41    49    1
