@<TRIPOS>MOLECULE
*****
 123 128 0 0 0
SMALL
GASTEIGER

@<TRIPOS>ATOM
     1 C         -2.760688   0.267504   3.077095 C.3        1 UNL1     0.0009
     2 C         -2.42742   0.169465   4.898182 C.2        1 UNL1     -0.0787
     3 C         -2.408674   -0.586521   6.132759 C.2        1 UNL1     -0.0649
     4 C         -1.819327   -0.098406   7.642981 C.2        1 UNL1     -0.0542
     5 C         -1.357426   -0.540524   8.907203 C.2        1 UNL1     0.0115
     6 C         -1.226439   -1.780443   9.833899 C.3        1 UNL1     -0.0348
     7 C         -0.509291   0.470358   9.82141 C.2        1 UNL1     0.2441
     8 O         -0.988072   1.063402   10.778277 O.2        1 UNL1     -0.2702
     9 N         0.880098   0.429899   9.611383 N.am        1 UNL1     -0.2772
     10 C         1.239084   1.296944   8.605061 C.2        1 UNL1     0.1049
     11 C         1.105454   0.84432   7.371571 C.2        1 UNL1     0.0801
     12 C         0.939914   3.651322   7.814658 C.ar        1 UNL1     0.0753
     13 C         0.595991   3.096965   6.540683 C.ar        1 UNL1     0.0305
     14 C         0.795965   1.680374   6.243473 C.2        1 UNL1     0.0924
     15 N         0.87221   -0.403474   6.929831 N.pl3        1 UNL1     -0.3170
     16 C         0.987496   -0.390618   5.495677 C.3        1 UNL1     0.1275
     17 N         0.629124   1.021149   5.100445 N.2        1 UNL1     -0.2557
     18 C         2.465709   -0.56225   5.159326 C.3        1 UNL1     0.0016
     19 C         2.969648   -1.836397   5.818254 C.3        1 UNL1     0.0026
     20 N         2.185955   -2.960079   5.324096 N.3        1 UNL1     -0.3018
     21 C         0.742251   -2.856738   5.54637 C.3        1 UNL1     0.0026
     22 C         0.256568   -1.572395   4.872225 C.3        1 UNL1     0.0016
     23 C         2.771327   -4.244288   5.653929 C.3        1 UNL1     0.0012
     24 C         2.974697   -5.085619   4.384063 C.3        1 UNL1     -0.0339
     25 C         1.693173   -5.143292   3.536461 C.3        1 UNL1     -0.0615
     26 C         4.149319   -4.547679   3.585524 C.3        1 UNL1     -0.0615
     27 C         0.860185   5.021734   8.050734 C.ar        1 UNL1     0.1347
     28 C         0.489587   5.93759   7.082273 C.ar        1 UNL1     0.0342
     29 C         0.108562   5.364273   5.850489 C.ar        1 UNL1     0.1435
     30 C         0.148727   3.990169   5.610814 C.ar        1 UNL1     0.0774
     31 O         -0.172059   6.130061   4.773536 O.3        1 UNL1     -0.4436
     32 C         -0.041467   5.242049   3.653155 C.3        1 UNL1     0.3143
     33 C         -0.242422   3.852582   4.223428 C.2        1 UNL1     0.2504
     34 C         0.622073   7.431585   7.184872 C.3        1 UNL1     -0.0327
     35 O         -1.145923   5.496982   2.77655 O.2        1 UNL1     -0.4528
     36 C         0.099924   4.712933   -0.722196 C.3        1 UNL1     0.0854
     37 C         0.708845   3.371585   -1.285687 C.3        1 UNL1     0.0236
     38 C         -0.031624   2.785193   -2.581678 C.3        1 UNL1     0.1131
     39 C         -1.603204   2.605345   -2.573908 C.3        1 UNL1     0.0200
     40 C         -2.373654   1.964308   -1.240523 C.3        1 UNL1     0.0661
     41 C         -1.941099   0.535865   -0.434262 C.3        1 UNL1     0.0091
     42 C         -2.079306   0.080876   1.337541 C.3        1 UNL1     0.0661
     43 C         1.469974   2.728568   8.84898 C.2        1 UNL1     0.2131
     44 O         2.14664   3.093362   9.793324 O.2        1 UNL1     -0.2851
     45 O         1.168944   5.474697   9.331722 O.3        1 UNL1     -0.5056
     46 O         -0.653965   2.860774   3.66414 O.2        1 UNL1     -0.2836
     47 C         -4.288727   0.334227   2.811341 C.3        1 UNL1     -0.0566
     48 O         -2.680214   -1.247603   1.067043 O.3        1 UNL1     -0.3909
     49 C         -0.561859   0.116009   -0.891334 C.3        1 UNL1     -0.0577
     50 O         -2.67586   2.97658   -0.301533 O.3        1 UNL1     -0.3910
     51 O         -1.110239   5.134696   -1.309607 O.3        1 UNL1     -0.3753
     52 C         1.238163   2.446963   -0.141201 C.3        1 UNL1     -0.0564
     53 O         0.758101   1.729135   -3.2982 O.3        1 UNL1     -0.4608
     54 C         0.300159   0.961493   -4.336922 C.2        1 UNL1     0.3042
     55 O         0.847391   0.770263   -5.42219 O.2        1 UNL1     -0.2512
     56 C         -0.991592   0.254979   -4.038709 C.3        1 UNL1     0.0332
     57 C         -2.241011   3.907658   -3.24871 C.3        1 UNL1     -0.0567
     58 C         1.418284   5.372393   3.159527 C.3        1 UNL1     0.0210
     59 C         -0.960659   5.945508   -2.474114 C.3        1 UNL1     0.0372
     60 C         -0.106079   4.739699   0.751577 C.2        1 UNL1     -0.0208
     61 C         -1.145547   5.163804   1.471567 C.2        1 UNL1     0.0882
     62 H         -2.399115   1.302828   3.086107 H        1 UNL1     0.0365
     63 H         -2.15308   1.204805   5.110974 H        1 UNL1     0.0576
     64 H         -2.641403   -1.65352   6.154188 H        1 UNL1     0.0615
     65 H         -1.696598   0.982956   7.537734 H        1 UNL1     0.0622
     66 H         0.864826   5.473438   -0.933388 H        1 UNL1     0.0645
     67 H         1.682383   3.675697   -1.707943 H        1 UNL1     0.0362
     68 H         0.164956   3.603011   -3.291643 H        1 UNL1     0.0741
     69 H         -1.878523   1.91607   -3.360996 H        1 UNL1     0.0359
     70 H         -3.350587   1.704604   -1.691319 H        1 UNL1     0.0600
     71 H         -2.57921   -0.191348   -0.973643 H        1 UNL1     0.0348
     72 H         -2.773508   0.919981   1.184885 H        1 UNL1     0.0602
     73 H         0.798232   4.465603   1.235664 H        1 UNL1     0.0628
     74 H         -2.124444   5.407266   1.057169 H        1 UNL1     0.1022
     75 H         -0.179918   -1.879365   10.210783 H        1 UNL1     0.0279
     76 H         -1.806037   -1.761743   10.754109 H        1 UNL1     0.0279
     77 H         -1.353085   -2.730216   9.293907 H        1 UNL1     0.0279
     78 H         1.155115   -0.506329   9.321694 H        1 UNL1     0.1553
     79 H         1.028686   -1.227616   7.480502 H        1 UNL1     0.1484
     80 H         2.582147   -0.601857   4.069538 H        1 UNL1     0.0317
     81 H         3.048285   0.298133   5.505734 H        1 UNL1     0.0317
     82 H         2.922929   -1.773294   6.915408 H        1 UNL1     0.0428
     83 H         4.025841   -1.938448   5.567071 H        1 UNL1     0.0428
     84 H         0.169551   -3.673482   5.096086 H        1 UNL1     0.0428
     85 H         0.488213   -2.909731   6.614065 H        1 UNL1     0.0428
     86 H         -0.815262   -1.597499   4.939595 H        1 UNL1     0.0317
     87 H         0.444231   -1.621796   3.79267 H        1 UNL1     0.0317
     88 H         3.75143   -4.064617   6.114809 H        1 UNL1     0.0429
     89 H         2.162592   -4.782224   6.392062 H        1 UNL1     0.0429
     90 H         3.250157   -6.107515   4.670531 H        1 UNL1     0.0308
     91 H         0.833873   -4.749358   4.08739 H        1 UNL1     0.0233
     92 H         1.816381   -4.576127   2.610852 H        1 UNL1     0.0233
     93 H         1.4367   -6.166498   3.236284 H        1 UNL1     0.0233
     94 H         3.793362   -4.063483   2.669726 H        1 UNL1     0.0233
     95 H         4.69007   -3.800766   4.173462 H        1 UNL1     0.0233
     96 H         4.841996   -5.346831   3.307095 H        1 UNL1     0.0233
     97 H         0.307377   7.932055   6.273979 H        1 UNL1     0.0280
     98 H         -0.000809   7.848148   7.987213 H        1 UNL1     0.0280
     99 H         1.674424   7.69631   7.378713 H        1 UNL1     0.0280
     100 H         0.423844   5.729005   9.847257 H        1 UNL1     0.2922
     101 H         -4.724431   1.158392   3.375761 H        1 UNL1     0.0236
     102 H         -4.799013   -0.608753   3.004685 H        1 UNL1     0.0236
     103 H         -4.516045   0.565806   1.757353 H        1 UNL1     0.0236
     104 H         -2.233651   -1.896584   1.645296 H        1 UNL1     0.2098
     105 H         -0.534766   -0.829496   -1.427148 H        1 UNL1     0.0234
     106 H         -0.013228   0.878962   -1.443452 H        1 UNL1     0.0234
     107 H         0.0   0.0   0.0 H        1 UNL1     0.0234
     108 H         -3.044673   2.537976   0.489271 H        1 UNL1     0.2098
     109 H         1.732939   1.545867   -0.529702 H        1 UNL1     0.0234
     110 H         1.909729   2.963166   0.553261 H        1 UNL1     0.0234
     111 H         0.421274   2.085531   0.497553 H        1 UNL1     0.0234
     112 H         -1.247504   -0.416682   -4.86377 H        1 UNL1     0.0342
     113 H         -0.954799   -0.283987   -3.09319 H        1 UNL1     0.0342
     114 H         -1.785681   1.010288   -3.960633 H        1 UNL1     0.0342
     115 H         -2.18337   3.869288   -4.345247 H        1 UNL1     0.0234
     116 H         -3.285208   4.080394   -2.980632 H        1 UNL1     0.0234
     117 H         -1.677741   4.832998   -3.037961 H        1 UNL1     0.0234
     118 H         1.485414   5.366048   2.057502 H        1 UNL1     0.0309
     119 H         1.923841   6.263902   3.544008 H        1 UNL1     0.0309
     120 H         2.039734   4.520096   3.455324 H        1 UNL1     0.0309
     121 H         -0.678519   5.29046   -3.297926 H        1 UNL1     0.0524
     122 H         -1.900189   6.448802   -2.756982 H        1 UNL1     0.0524
     123 H         -0.192875   6.696901   -2.312836 H        1 UNL1     0.0524
@<TRIPOS>BOND
     1     1     2    1
     2     1    42    1
     3     2     3    2
     4     3     4    1
     5     4     5    2
     6     5     7    1
     7     6    75    1
     8     6    76    1
     9     6    77    1
    10     7     9   am
    11     9    10    1
    12    10    11    2
    13    10    43    1
    14    11    14    1
    15    11    15    1
    16    12    13   ar
    17    12    27   ar
    18    12    43    1
    19    13    14    1
    20    13    30   ar
    21    14    17    2
    22    15    16    1
    23    16    17    1
    24    16    18    1
    25    16    22    1
    26    18    19    1
    27    19    20    1
    28    20    21    1
    29    21    22    1
    30    23    24    1
    31    23    88    1
    32    23    89    1
    33    24    25    1
    34    24    26    1
    35    24    90    1
    36    25    91    1
    37    25    92    1
    38    25    93    1
    39    26    94    1
    40    26    95    1
    41    26    96    1
    42    27    28   ar
    43    28    29   ar
    44    29    30   ar
    45    29    31    1
    46    30    33    1
    47    31    32    1
    48    32    33    1
    49    32    35    1
    50    34    97    1
    51    34    98    1
    52    34    99    1
    53    35    61    1
    54    36    37    1
    55    36    60    1
    56    37    38    1
    57    38    39    1
    58    39    40    1
    59    40    41    1
    60    41    42    1
    61    45   100    1
    62    47   101    1
    63    47   102    1
    64    47   103    1
    65    48   104    1
    66    49   105    1
    67    49   106    1
    68    49   107    1
    69    50   108    1
    70    51    59    1
    71    52   109    1
    72    52   110    1
    73    52   111    1
    74    53    54    1
    75    54    55    2
    76    54    56    1
    77    56   112    1
    78    56   113    1
    79    56   114    1
    80    57   115    1
    81    57   116    1
    82    57   117    1
    83    58   118    1
    84    58   119    1
    85    58   120    1
    86    59   121    1
    87    59   122    1
    88    59   123    1
    89    60    61    2
    90     1    47    1
    91     1    62    1
    92     2    63    1
    93     3    64    1
    94     4    65    1
    95     5     6    1
    96     7     8    2
    97     9    78    1
    98    15    79    1
    99    18    80    1
   100    18    81    1
   101    19    82    1
   102    19    83    1
   103    20    23    1
   104    21    84    1
   105    21    85    1
   106    22    86    1
   107    22    87    1
   108    27    45    1
   109    28    34    1
   110    32    58    1
   111    33    46    2
   112    36    51    1
   113    36    66    1
   114    37    52    1
   115    37    67    1
   116    38    53    1
   117    38    68    1
   118    42    48    1
   119    42    72    1
   120    43    44    2
   121    60    73    1
   122    61    74    1
   123    39    69    1
   124    39    57    1
   125    40    70    1
   126    40    50    1
   127    41    71    1
   128    41    49    1
