@<TRIPOS>MOLECULE
*****
 123 128 0 0 0
SMALL
GASTEIGER

@<TRIPOS>ATOM
     1 C         0.868304   0.803177   4.025748 C.3        1 UNL1     0.0009
     2 C         0.661578   2.412634   4.92238 C.2        1 UNL1     -0.0787
     3 C         1.231461   3.616193   5.490468 C.2        1 UNL1     -0.0649
     4 C         0.414117   4.936608   6.164865 C.2        1 UNL1     -0.0542
     5 C         0.511827   6.304828   6.519132 C.2        1 UNL1     0.0115
     6 C         1.49815   7.494553   6.677385 C.3        1 UNL1     -0.0348
     7 C         -0.835661   7.140529   6.769867 C.2        1 UNL1     0.2441
     8 O         -1.252211   7.41172   7.887663 O.2        1 UNL1     -0.2702
     9 N         -1.364425   7.762649   5.625522 N.am        1 UNL1     -0.2772
     10 C         -2.212706   6.906221   4.961992 C.2        1 UNL1     0.1049
     11 C         -1.642351   6.038094   4.146349 C.2        1 UNL1     0.0801
     12 C         -4.147087   5.360387   5.316822 C.ar        1 UNL1     0.0753
     13 C         -3.393073   4.378366   4.598695 C.ar        1 UNL1     0.0305
     14 C         -2.171621   4.728574   3.877265 C.2        1 UNL1     0.0924
     15 N         -0.379231   5.982259   3.690348 N.pl3        1 UNL1     -0.3170
     16 C         -0.316853   4.945154   2.69497 C.3        1 UNL1     0.1275
     17 N         -1.40836   3.979305   3.086724 N.2        1 UNL1     -0.2557
     18 C         -0.753595   5.563082   1.370159 C.3        1 UNL1     0.0016
     19 C         0.129948   6.765848   1.079823 C.3        1 UNL1     0.0026
     20 N         1.516464   6.324215   1.020152 N.3        1 UNL1     -0.3018
     21 C         2.010163   5.660663   2.228593 C.3        1 UNL1     0.0026
     22 C         1.111043   4.453009   2.498872 C.3        1 UNL1     0.0016
     23 C         2.403   7.323731   0.45831 C.3        1 UNL1     0.0012
     24 C         2.140695   7.491469   -1.046621 C.3        1 UNL1     -0.0339
     25 C         1.723781   8.931572   -1.387713 C.3        1 UNL1     -0.0615
     26 C         3.362417   7.060566   -1.839399 C.3        1 UNL1     -0.0615
     27 C         -5.372072   5.045233   5.900095 C.ar        1 UNL1     0.1347
     28 C         -5.96142   3.797656   5.798762 C.ar        1 UNL1     0.0342
     29 C         -5.178301   2.8336   5.129072 C.ar        1 UNL1     0.1435
     30 C         -3.933064   3.125308   4.57094 C.ar        1 UNL1     0.0774
     31 O         -5.66056   1.602329   4.852659 O.3        1 UNL1     -0.4436
     32 C         -4.817358   1.110469   3.800063 C.3        1 UNL1     0.3143
     33 C         -3.526141   1.893089   3.928432 C.2        1 UNL1     0.2504
     34 C         -7.375769   3.45723   6.178008 C.3        1 UNL1     -0.0327
     35 O         -4.509271   -0.255489   4.104192 O.2        1 UNL1     -0.4528
     36 C         -4.025208   -1.982767   0.759004 C.3        1 UNL1     0.0854
     37 C         -3.020691   -1.634517   -0.405981 C.3        1 UNL1     0.0236
     38 C         -2.069387   -2.842413   -0.861778 C.3        1 UNL1     0.1131
     39 C         -1.247813   -3.647505   0.224091 C.3        1 UNL1     0.0200
     40 C         -0.458937   -2.843291   1.454276 C.3        1 UNL1     0.0661
     41 C         0.58142   -1.516549   1.267134 C.3        1 UNL1     0.0091
     42 C         0.89936   -0.088258   2.373616 C.3        1 UNL1     0.0661
     43 C         -3.624065   6.748907   5.343663 C.2        1 UNL1     0.2131
     44 O         -4.318339   7.725577   5.560081 O.2        1 UNL1     -0.2851
     45 O         -6.020302   6.046552   6.620231 O.3        1 UNL1     -0.5056
     46 O         -2.409452   1.564285   3.595647 O.2        1 UNL1     -0.2836
     47 C         1.472142   -0.268212   4.973106 C.3        1 UNL1     -0.0566
     48 O         2.375114   -0.190157   2.269289 O.3        1 UNL1     -0.3909
     49 C         0.420824   -0.96396   -0.131561 C.3        1 UNL1     -0.0577
     50 O         -1.3269   -2.626119   2.548442 O.3        1 UNL1     -0.3910
     51 O         -3.848175   -3.241081   1.369526 O.3        1 UNL1     -0.3753
     52 C         -2.505071   -0.161549   -0.308756 C.3        1 UNL1     -0.0564
     53 O         -1.385499   -2.605063   -2.176422 O.3        1 UNL1     -0.4608
     54 C         -0.863172   -3.577889   -2.988034 C.2        1 UNL1     0.3042
     55 O         0.321283   -3.883366   -3.120658 O.2        1 UNL1     -0.2512
     56 C         -1.905023   -4.36288   -3.73305 C.3        1 UNL1     0.0332
     57 C         -2.099255   -4.945823   0.608265 C.3        1 UNL1     -0.0567
     58 C         -5.505793   1.498404   2.470743 C.3        1 UNL1     0.0210
     59 C         -5.014081   -3.771731   1.997968 C.3        1 UNL1     0.0372
     60 C         -4.088688   -0.978657   1.855769 C.2        1 UNL1     -0.0208
     61 C         -4.097001   -1.143435   3.17922 C.2        1 UNL1     0.0882
     62 H         -0.219769   0.66917   4.054918 H        1 UNL1     0.0365
     63 H         -0.40728   2.386148   5.144439 H        1 UNL1     0.0576
     64 H         2.291471   3.855264   5.379417 H        1 UNL1     0.0615
     65 H         -0.605542   4.567794   6.305417 H        1 UNL1     0.0622
     66 H         -5.015474   -1.971265   0.282258 H        1 UNL1     0.0645
     67 H         -3.668129   -1.518506   -1.292505 H        1 UNL1     0.0362
     68 H         -2.830303   -3.54593   -1.232714 H        1 UNL1     0.0741
     69 H         -0.442237   -4.174755   -0.269329 H        1 UNL1     0.0359
     70 H         0.224306   -3.643444   1.79778 H        1 UNL1     0.0600
     71 H         1.552432   -2.042778   1.182427 H        1 UNL1     0.0348
     72 H         0.445588   -0.865895   3.005031 H        1 UNL1     0.0602
     73 H         -4.261944   -0.017382   1.439619 H        1 UNL1     0.0628
     74 H         -3.870702   -2.082628   3.685129 H        1 UNL1     0.1022
     75 H         2.405382   7.178575   7.246702 H        1 UNL1     0.0279
     76 H         1.924754   7.89624   5.76102 H        1 UNL1     0.0279
     77 H         1.102921   8.29146   7.32425 H        1 UNL1     0.0279
     78 H         -0.609173   8.001891   4.986433 H        1 UNL1     0.1553
     79 H         0.252784   6.761557   3.703924 H        1 UNL1     0.1484
     80 H         -0.673682   4.80724   0.579537 H        1 UNL1     0.0317
     81 H         -1.805158   5.86711   1.408007 H        1 UNL1     0.0317
     82 H         -0.001092   7.558189   1.831446 H        1 UNL1     0.0428
     83 H         -0.199777   7.192277   0.131936 H        1 UNL1     0.0428
     84 H         3.027013   5.26829   2.129243 H        1 UNL1     0.0428
     85 H         2.073572   6.353922   3.078704 H        1 UNL1     0.0428
     86 H         1.577916   3.919254   3.305794 H        1 UNL1     0.0317
     87 H         1.169032   3.747663   1.660886 H        1 UNL1     0.0317
     88 H         2.199269   8.280173   0.957315 H        1 UNL1     0.0429
     89 H         3.455023   7.077662   0.651887 H        1 UNL1     0.0429
     90 H         1.333478   6.813519   -1.348281 H        1 UNL1     0.0308
     91 H         1.394137   9.472128   -0.495392 H        1 UNL1     0.0233
     92 H         2.551605   9.474098   -1.850294 H        1 UNL1     0.0233
     93 H         0.89544   8.96761   -2.105618 H        1 UNL1     0.0233
     94 H         4.126472   7.844976   -1.811896 H        1 UNL1     0.0233
     95 H         3.792327   6.15568   -1.400856 H        1 UNL1     0.0233
     96 H         3.109835   6.860678   -2.884491 H        1 UNL1     0.0233
     97 H         -7.468579   2.433492   6.52812 H        1 UNL1     0.0280
     98 H         -7.748765   4.089106   6.994625 H        1 UNL1     0.0280
     99 H         -8.033323   3.583946   5.302416 H        1 UNL1     0.0280
     100 H         -5.477461   6.492419   7.246448 H        1 UNL1     0.2922
     101 H         0.693918   -0.965144   5.283445 H        1 UNL1     0.0236
     102 H         2.000088   0.160751   5.824133 H        1 UNL1     0.0236
     103 H         2.222744   -0.8955   4.463893 H        1 UNL1     0.0236
     104 H         2.671698   -0.854895   2.921311 H        1 UNL1     0.2098
     105 H         1.353169   -0.848157   -0.678492 H        1 UNL1     0.0234
     106 H         -0.314885   -1.483986   -0.744939 H        1 UNL1     0.0234
     107 H         -0.0   0.0   0.0 H        1 UNL1     0.0234
     108 H         -2.069624   -3.253859   2.458601 H        1 UNL1     0.2098
     109 H         -2.263055   0.127169   0.723611 H        1 UNL1     0.0234
     110 H         -1.644015   0.036649   -0.956091 H        1 UNL1     0.0234
     111 H         -3.263912   0.556113   -0.647975 H        1 UNL1     0.0234
     112 H         -1.424499   -5.133391   -4.343585 H        1 UNL1     0.0342
     113 H         -2.644922   -4.799613   -3.063977 H        1 UNL1     0.0342
     114 H         -2.432351   -3.676913   -4.410205 H        1 UNL1     0.0342
     115 H         -2.391223   -5.520713   -0.281367 H        1 UNL1     0.0234
     116 H         -1.58484   -5.629341   1.286668 H        1 UNL1     0.0234
     117 H         -3.085821   -4.711831   1.044014 H        1 UNL1     0.0234
     118 H         -6.151844   0.689503   2.086943 H        1 UNL1     0.0309
     119 H         -6.091259   2.420455   2.543225 H        1 UNL1     0.0309
     120 H         -4.789584   1.657141   1.657138 H        1 UNL1     0.0309
     121 H         -5.040866   -3.39076   3.018507 H        1 UNL1     0.0524
     122 H         -5.942499   -3.448385   1.498443 H        1 UNL1     0.0524
     123 H         -4.97666   -4.857391   2.004013 H        1 UNL1     0.0524
@<TRIPOS>BOND
     1     1     2    1
     2     1    42    1
     3     2     3    2
     4     3     4    1
     5     4     5    2
     6     5     7    1
     7     6    75    1
     8     6    76    1
     9     6    77    1
    10     7     9   am
    11     9    10    1
    12    10    11    2
    13    10    43    1
    14    11    14    1
    15    11    15    1
    16    12    13   ar
    17    12    27   ar
    18    12    43    1
    19    13    14    1
    20    13    30   ar
    21    14    17    2
    22    15    16    1
    23    16    17    1
    24    16    18    1
    25    16    22    1
    26    18    19    1
    27    19    20    1
    28    20    21    1
    29    21    22    1
    30    23    24    1
    31    23    88    1
    32    23    89    1
    33    24    25    1
    34    24    26    1
    35    24    90    1
    36    25    91    1
    37    25    92    1
    38    25    93    1
    39    26    94    1
    40    26    95    1
    41    26    96    1
    42    27    28   ar
    43    28    29   ar
    44    29    30   ar
    45    29    31    1
    46    30    33    1
    47    31    32    1
    48    32    33    1
    49    32    35    1
    50    34    97    1
    51    34    98    1
    52    34    99    1
    53    35    61    1
    54    36    37    1
    55    36    60    1
    56    37    38    1
    57    38    39    1
    58    39    40    1
    59    40    41    1
    60    41    42    1
    61    45   100    1
    62    47   101    1
    63    47   102    1
    64    47   103    1
    65    48   104    1
    66    49   105    1
    67    49   106    1
    68    49   107    1
    69    50   108    1
    70    51    59    1
    71    52   109    1
    72    52   110    1
    73    52   111    1
    74    53    54    1
    75    54    55    2
    76    54    56    1
    77    56   112    1
    78    56   113    1
    79    56   114    1
    80    57   115    1
    81    57   116    1
    82    57   117    1
    83    58   118    1
    84    58   119    1
    85    58   120    1
    86    59   121    1
    87    59   122    1
    88    59   123    1
    89    60    61    2
    90     1    47    1
    91     1    62    1
    92     2    63    1
    93     3    64    1
    94     4    65    1
    95     5     6    1
    96     7     8    2
    97     9    78    1
    98    15    79    1
    99    18    80    1
   100    18    81    1
   101    19    82    1
   102    19    83    1
   103    20    23    1
   104    21    84    1
   105    21    85    1
   106    22    86    1
   107    22    87    1
   108    27    45    1
   109    28    34    1
   110    32    58    1
   111    33    46    2
   112    36    51    1
   113    36    66    1
   114    37    52    1
   115    37    67    1
   116    38    53    1
   117    38    68    1
   118    42    48    1
   119    42    72    1
   120    43    44    2
   121    60    73    1
   122    61    74    1
   123    39    69    1
   124    39    57    1
   125    40    70    1
   126    40    50    1
   127    41    71    1
   128    41    49    1
