@<TRIPOS>MOLECULE
*****
 123 128 0 0 0
SMALL
GASTEIGER

@<TRIPOS>ATOM
     1 C         4.564385   0.625924   0.516769 C.3        1 UNL1     0.0009
     2 C         5.688041   1.339607   1.807154 C.2        1 UNL1     -0.0787
     3 C         6.303464   2.486187   2.441706 C.2        1 UNL1     -0.0649
     4 C         7.277228   2.51109   3.826451 C.2        1 UNL1     -0.0542
     5 C         7.787099   3.318585   4.872903 C.2        1 UNL1     0.0115
     6 C         7.928863   4.781412   5.376256 C.3        1 UNL1     -0.0348
     7 C         8.374613   2.607763   6.186884 C.2        1 UNL1     0.2441
     8 O         9.573372   2.480589   6.395042 O.2        1 UNL1     -0.2702
     9 N         7.430998   2.375349   7.202624 N.am        1 UNL1     -0.2772
     10 C         6.816299   1.158278   7.017677 C.2        1 UNL1     0.1049
     11 C         5.807037   1.139402   6.166057 C.2        1 UNL1     0.0801
     12 C         7.291698   -1.255957   6.567345 C.ar        1 UNL1     0.0753
     13 C         6.330907   -1.167053   5.510186 C.ar        1 UNL1     0.0305
     14 C         5.462466   -0.001391   5.361545 C.2        1 UNL1     0.0924
     15 N         5.136817   2.156682   5.598189 N.pl3        1 UNL1     -0.3170
     16 C         4.017332   1.601507   4.884894 C.3        1 UNL1     0.1275
     17 N         4.460171   0.20758   4.512627 N.2        1 UNL1     -0.2557
     18 C         2.881146   1.430964   5.888735 C.3        1 UNL1     0.0016
     19 C         2.604475   2.775155   6.543099 C.3        1 UNL1     0.0026
     20 N         2.248839   3.73525   5.507353 N.3        1 UNL1     -0.3018
     21 C         3.255585   3.921863   4.460449 C.3        1 UNL1     0.0026
     22 C         3.514716   2.560172   3.813499 C.3        1 UNL1     0.0016
     23 C         1.679757   4.956399   6.041753 C.3        1 UNL1     0.0012
     24 C         0.729537   4.642449   7.20806 C.3        1 UNL1     -0.0339
     25 C         1.251837   5.225342   8.5315 C.3        1 UNL1     -0.0615
     26 C         -0.66864   5.14311   6.889911 C.3        1 UNL1     -0.0615
     27 C         8.030525   -2.418286   6.775297 C.ar        1 UNL1     0.1347
     28 C         7.868244   -3.565295   6.018933 C.ar        1 UNL1     0.0342
     29 C         6.952092   -3.438304   4.95324 C.ar        1 UNL1     0.1435
     30 C         6.231215   -2.268425   4.710464 C.ar        1 UNL1     0.0774
     31 O         6.602609   -4.499671   4.194051 O.3        1 UNL1     -0.4436
     32 C         5.364774   -4.113173   3.578214 C.3        1 UNL1     0.3143
     33 C         5.370984   -2.597934   3.593238 C.2        1 UNL1     0.2504
     34 C         8.437217   -4.919735   6.338092 C.3        1 UNL1     -0.0327
     35 O         5.427926   -4.517028   2.204837 O.2        1 UNL1     -0.4528
     36 C         1.850809   -5.255163   1.171648 C.3        1 UNL1     0.0854
     37 C         0.586541   -4.313237   1.215539 C.3        1 UNL1     0.0236
     38 C         -0.182058   -4.148063   -0.182215 C.3        1 UNL1     0.1131
     39 C         0.629811   -3.762213   -1.483851 C.3        1 UNL1     0.0200
     40 C         1.800969   -2.575725   -1.428413 C.3        1 UNL1     0.0661
     41 C         1.61439   -1.025585   -0.765192 C.3        1 UNL1     0.0091
     42 C         2.828491   0.063497   0.074607 C.3        1 UNL1     0.0661
     43 C         7.411333   -0.100465   7.490809 C.2        1 UNL1     0.2131
     44 O         7.871393   -0.182343   8.615255 O.2        1 UNL1     -0.2851
     45 O         8.977594   -2.406503   7.797236 O.3        1 UNL1     -0.5056
     46 O         4.810186   -1.834587   2.839142 O.2        1 UNL1     -0.2836
     47 C         5.243374   0.678424   -0.878294 C.3        1 UNL1     -0.0566
     48 O         2.458804   1.268854   -0.706139 O.3        1 UNL1     -0.3909
     49 C         0.349845   -0.99856   0.064078 C.3        1 UNL1     -0.0577
     50 O         3.047332   -3.11943   -1.042812 O.3        1 UNL1     -0.3910
     51 O         2.24986   -5.691446   -0.108136 O.3        1 UNL1     -0.3753
     52 C         0.787321   -3.115414   2.200352 C.3        1 UNL1     -0.0564
     53 O         -1.551806   -3.549791   -0.047353 O.3        1 UNL1     -0.4608
     54 C         -2.32549   -3.581446   1.083284 C.2        1 UNL1     0.3042
     55 O         -3.435654   -4.09542   1.214451 O.2        1 UNL1     -0.2512
     56 C         -1.669529   -2.951067   2.278713 C.3        1 UNL1     0.0332
     57 C         0.979911   -5.119607   -2.253973 C.3        1 UNL1     -0.0567
     58 C         4.237161   -4.616683   4.509072 C.3        1 UNL1     0.0210
     59 C         1.245926   -5.58792   -1.116732 C.3        1 UNL1     0.0372
     60 C         3.065086   -4.709294   1.837018 C.2        1 UNL1     -0.0208
     61 C         4.336576   -4.690589   1.434889 C.2        1 UNL1     0.0882
     62 H         4.762694   -0.372874   0.923938 H        1 UNL1     0.0365
     63 H         6.085536   0.42781   2.257812 H        1 UNL1     0.0576
     64 H         6.043958   3.507466   2.154037 H        1 UNL1     0.0615
     65 H         7.54142   1.461011   3.978178 H        1 UNL1     0.0622
     66 H         1.557664   -6.138072   1.756954 H        1 UNL1     0.0645
     67 H         -0.151871   -4.882969   1.806059 H        1 UNL1     0.0362
     68 H         -0.505993   -5.188399   -0.338069 H        1 UNL1     0.0741
     69 H         -0.060398   -3.379698   -2.22392 H        1 UNL1     0.0359
     70 H         1.9127   -2.367411   -2.5097 H        1 UNL1     0.0600
     71 H         1.294751   -0.466858   -1.666642 H        1 UNL1     0.0348
     72 H         3.420225   -0.668126   -0.494509 H        1 UNL1     0.0602
     73 H         2.81584   -4.404446   2.823016 H        1 UNL1     0.0628
     74 H         4.667214   -4.931312   0.423964 H        1 UNL1     0.1022
     75 H         6.923478   5.24585   5.51955 H        1 UNL1     0.0279
     76 H         8.390367   4.916164   6.351923 H        1 UNL1     0.0279
     77 H         8.370885   5.449517   4.62263 H        1 UNL1     0.0279
     78 H         6.70862   3.091661   7.168817 H        1 UNL1     0.1553
     79 H         5.144166   3.095367   5.952801 H        1 UNL1     0.1484
     80 H         1.995693   1.050509   5.36529 H        1 UNL1     0.0317
     81 H         3.139549   0.686505   6.649432 H        1 UNL1     0.0317
     82 H         3.465499   3.127059   7.130223 H        1 UNL1     0.0428
     83 H         1.792444   2.630382   7.256329 H        1 UNL1     0.0428
     84 H         2.93145   4.586626   3.653703 H        1 UNL1     0.0428
     85 H         4.166125   4.398399   4.849224 H        1 UNL1     0.0428
     86 H         4.151317   2.756444   2.970763 H        1 UNL1     0.0317
     87 H         2.593487   2.182624   3.353184 H        1 UNL1     0.0317
     88 H         2.501254   5.579789   6.418343 H        1 UNL1     0.0429
     89 H         1.169872   5.534137   5.260081 H        1 UNL1     0.0429
     90 H         0.640849   3.554966   7.316357 H        1 UNL1     0.0308
     91 H         0.86108   4.672738   9.391175 H        1 UNL1     0.0233
     92 H         2.343841   5.204947   8.558308 H        1 UNL1     0.0233
     93 H         0.962114   6.274133   8.669101 H        1 UNL1     0.0233
     94 H         -1.416282   4.422261   7.238113 H        1 UNL1     0.0233
     95 H         -0.851216   6.092052   7.401905 H        1 UNL1     0.0233
     96 H         -0.804829   5.290158   5.81483 H        1 UNL1     0.0233
     97 H         7.698539   -5.708128   6.228452 H        1 UNL1     0.0280
     98 H         9.265366   -5.188734   5.669463 H        1 UNL1     0.0280
     99 H         8.802672   -4.930792   7.378003 H        1 UNL1     0.0280
     100 H         9.463021   -1.603756   7.871935 H        1 UNL1     0.2922
     101 H         4.652158   1.298465   -1.551843 H        1 UNL1     0.0236
     102 H         5.439565   -0.308106   -1.296925 H        1 UNL1     0.0236
     103 H         6.230369   1.168924   -0.840298 H        1 UNL1     0.0236
     104 H         2.672321   1.090441   -1.642915 H        1 UNL1     0.2098
     105 H         -0.439591   -1.651647   -0.299348 H        1 UNL1     0.0234
     106 H         0.502745   -1.149191   1.132656 H        1 UNL1     0.0234
     107 H         0.0   0.0   0.0 H        1 UNL1     0.0234
     108 H         3.70922   -2.818791   -1.694954 H        1 UNL1     0.2098
     109 H         0.624159   -2.144161   1.712749 H        1 UNL1     0.0234
     110 H         0.161254   -3.185335   3.096396 H        1 UNL1     0.0234
     111 H         1.812123   -3.082162   2.593573 H        1 UNL1     0.0234
     112 H         -1.049665   -2.107089   1.9612 H        1 UNL1     0.0342
     113 H         -2.395831   -2.641959   3.028902 H        1 UNL1     0.0342
     114 H         -1.009995   -3.697891   2.741782 H        1 UNL1     0.0342
     115 H         0.105432   -5.779683   -2.336275 H        1 UNL1     0.0234
     116 H         1.374079   -4.969675   -3.261049 H        1 UNL1     0.0234
     117 H         1.684998   -5.767434   -1.705234 H        1 UNL1     0.0234
     118 H         3.234793   -4.419356   4.090351 H        1 UNL1     0.0309
     119 H         4.321694   -5.681251   4.749388 H        1 UNL1     0.0309
     120 H         4.217996   -4.089657   5.469271 H        1 UNL1     0.0309
     121 H         0.679377   -4.676939   -0.925703 H        1 UNL1     0.0524
     122 H         1.676419   -5.505088   -2.128588 H        1 UNL1     0.0524
     123 H         0.588623   -6.452154   -1.082879 H        1 UNL1     0.0524
@<TRIPOS>BOND
     1     1     2    1
     2     1    42    1
     3     2     3    2
     4     3     4    1
     5     4     5    2
     6     5     7    1
     7     6    75    1
     8     6    76    1
     9     6    77    1
    10     7     9   am
    11     9    10    1
    12    10    11    2
    13    10    43    1
    14    11    14    1
    15    11    15    1
    16    12    13   ar
    17    12    27   ar
    18    12    43    1
    19    13    14    1
    20    13    30   ar
    21    14    17    2
    22    15    16    1
    23    16    17    1
    24    16    18    1
    25    16    22    1
    26    18    19    1
    27    19    20    1
    28    20    21    1
    29    21    22    1
    30    23    24    1
    31    23    88    1
    32    23    89    1
    33    24    25    1
    34    24    26    1
    35    24    90    1
    36    25    91    1
    37    25    92    1
    38    25    93    1
    39    26    94    1
    40    26    95    1
    41    26    96    1
    42    27    28   ar
    43    28    29   ar
    44    29    30   ar
    45    29    31    1
    46    30    33    1
    47    31    32    1
    48    32    33    1
    49    32    35    1
    50    34    97    1
    51    34    98    1
    52    34    99    1
    53    35    61    1
    54    36    37    1
    55    36    60    1
    56    37    38    1
    57    38    39    1
    58    39    40    1
    59    40    41    1
    60    41    42    1
    61    45   100    1
    62    47   101    1
    63    47   102    1
    64    47   103    1
    65    48   104    1
    66    49   105    1
    67    49   106    1
    68    49   107    1
    69    50   108    1
    70    51    59    1
    71    52   109    1
    72    52   110    1
    73    52   111    1
    74    53    54    1
    75    54    55    2
    76    54    56    1
    77    56   112    1
    78    56   113    1
    79    56   114    1
    80    57   115    1
    81    57   116    1
    82    57   117    1
    83    58   118    1
    84    58   119    1
    85    58   120    1
    86    59   121    1
    87    59   122    1
    88    59   123    1
    89    60    61    2
    90     1    47    1
    91     1    62    1
    92     2    63    1
    93     3    64    1
    94     4    65    1
    95     5     6    1
    96     7     8    2
    97     9    78    1
    98    15    79    1
    99    18    80    1
   100    18    81    1
   101    19    82    1
   102    19    83    1
   103    20    23    1
   104    21    84    1
   105    21    85    1
   106    22    86    1
   107    22    87    1
   108    27    45    1
   109    28    34    1
   110    32    58    1
   111    33    46    2
   112    36    51    1
   113    36    66    1
   114    37    52    1
   115    37    67    1
   116    38    53    1
   117    38    68    1
   118    42    48    1
   119    42    72    1
   120    43    44    2
   121    60    73    1
   122    61    74    1
   123    39    69    1
   124    39    57    1
   125    40    70    1
   126    40    50    1
   127    41    71    1
   128    41    49    1
