@<TRIPOS>MOLECULE
*****
 123 128 0 0 0
SMALL
GASTEIGER

@<TRIPOS>ATOM
     1 C         -1.421173   -0.721781   5.18299 C.3        1 UNL1     0.0009
     2 C         -2.717987   -0.321639   6.446001 C.2        1 UNL1     -0.0787
     3 C         -3.134455   0.387807   7.637339 C.2        1 UNL1     -0.0649
     4 C         -4.677947   0.440336   8.331048 C.2        1 UNL1     -0.0542
     5 C         -5.534988   1.155364   9.203569 C.2        1 UNL1     0.0115
     6 C         -5.589619   2.300817   10.251555 C.3        1 UNL1     -0.0348
     7 C         -7.116856   0.89337   9.125856 C.2        1 UNL1     0.2441
     8 O         -7.717244   0.20086   9.936098 O.2        1 UNL1     -0.2702
     9 N         -7.807063   1.719946   8.222231 N.am        1 UNL1     -0.2772
     10 C         -7.816998   1.156181   6.967085 C.2        1 UNL1     0.1049
     11 C         -6.740633   1.359318   6.229254 C.2        1 UNL1     0.0801
     12 C         -8.290938   -0.980699   5.756111 C.ar        1 UNL1     0.0753
     13 C         -7.01201   -0.820305   5.133838 C.ar        1 UNL1     0.0305
     14 C         -6.253983   0.423237   5.252371 C.2        1 UNL1     0.0924
     15 N         -5.711966   2.203953   6.416241 N.pl3        1 UNL1     -0.3170
     16 C         -4.88809   2.160765   5.237421 C.3        1 UNL1     0.1275
     17 N         -5.113244   0.780759   4.669431 N.2        1 UNL1     -0.2557
     18 C         -5.488698   3.136519   4.230011 C.3        1 UNL1     0.0016
     19 C         -5.584515   4.508067   4.87906 C.3        1 UNL1     0.0026
     20 N         -4.250138   4.928206   5.283968 N.3        1 UNL1     -0.3018
     21 C         -3.565456   4.019925   6.20625 C.3        1 UNL1     0.0026
     22 C         -3.476135   2.649678   5.532203 C.3        1 UNL1     0.0016
     23 C         -4.183848   6.332377   5.636887 C.3        1 UNL1     0.0012
     24 C         -5.235385   6.669322   6.705762 C.3        1 UNL1     -0.0339
     25 C         -4.587983   6.882701   8.083948 C.3        1 UNL1     -0.0615
     26 C         -6.046016   7.879517   6.275549 C.3        1 UNL1     -0.0615
     27 C         -9.060874   -2.121115   5.539846 C.ar        1 UNL1     0.1347
     28 C         -8.676401   -3.146301   4.694137 C.ar        1 UNL1     0.0342
     29 C         -7.3922   -2.989194   4.130834 C.ar        1 UNL1     0.1435
     30 C         -6.59423   -1.869058   4.366967 C.ar        1 UNL1     0.0774
     31 O         -6.920779   -3.84798   3.200643 O.3        1 UNL1     -0.4436
     32 C         -5.862589   -3.130431   2.547779 C.3        1 UNL1     0.3143
     33 C         -5.419306   -2.081752   3.547772 C.2        1 UNL1     0.2504
     34 C         -9.551576   -4.272673   4.219316 C.3        1 UNL1     -0.0327
     35 O         -4.767964   -4.040664   2.384912 O.2        1 UNL1     -0.4528
     36 C         -2.943755   -2.924036   -0.750927 C.3        1 UNL1     0.0854
     37 C         -2.303183   -1.522057   -1.085061 C.3        1 UNL1     0.0236
     38 C         -0.754518   -1.567967   -1.498912 C.3        1 UNL1     0.1131
     39 C         0.280724   -2.336115   -0.582128 C.3        1 UNL1     0.0200
     40 C         0.224193   -2.172128   1.076893 C.3        1 UNL1     0.0661
     41 C         0.154612   -0.706828   1.928753 C.3        1 UNL1     0.0091
     42 C         -0.651081   -0.295205   3.524631 C.3        1 UNL1     0.0661
     43 C         -8.809983   0.147445   6.568603 C.2        1 UNL1     0.2131
     44 O         -9.990958   0.311313   6.815952 O.2        1 UNL1     -0.2851
     45 O         -10.273319   -2.219319   6.219383 O.3        1 UNL1     -0.5056
     46 O         -4.334014   -1.556473   3.657671 O.2        1 UNL1     -0.2836
     47 C         -0.361225   -1.683437   5.784412 C.3        1 UNL1     -0.0566
     48 O         0.532332   0.412808   4.069947 O.3        1 UNL1     -0.3909
     49 C         -0.188898   0.404072   0.961594 C.3        1 UNL1     -0.0577
     50 O         -0.676947   -3.102847   1.642076 O.3        1 UNL1     -0.3910
     51 O         -2.048146   -4.010824   -0.686065 O.3        1 UNL1     -0.3753
     52 C         -2.889999   -0.385161   -0.186137 C.3        1 UNL1     -0.0564
     53 O         -0.266953   -0.302617   -2.141948 O.3        1 UNL1     -0.4608
     54 C         -0.813052   0.286699   -3.252089 C.2        1 UNL1     0.3042
     55 O         -1.175261   -0.266659   -4.289605 O.2        1 UNL1     -0.2512
     56 C         -1.019603   1.767552   -3.106747 C.3        1 UNL1     0.0332
     57 C         0.453838   -3.809483   -1.179952 C.3        1 UNL1     -0.0567
     58 C         -6.500968   -2.421064   1.330898 C.3        1 UNL1     0.0210
     59 C         -2.651819   -5.294829   -0.836976 C.3        1 UNL1     0.0372
     60 C         -3.756906   -2.96298   0.495038 C.2        1 UNL1     -0.0208
     61 C         -3.786329   -3.861323   1.48036 C.2        1 UNL1     0.0882
     62 H         -2.152138   -1.349708   4.659434 H        1 UNL1     0.0365
     63 H         -3.52399   -0.986148   6.127792 H        1 UNL1     0.0576
     64 H         -2.485169   1.118487   8.124824 H        1 UNL1     0.0615
     65 H         -5.21501   -0.371822   7.833609 H        1 UNL1     0.0622
     66 H         -3.646518   -3.109928   -1.575314 H        1 UNL1     0.0645
     67 H         -2.776736   -1.23143   -2.038918 H        1 UNL1     0.0362
     68 H         -0.827967   -2.165705   -2.420235 H        1 UNL1     0.0741
     69 H         1.278508   -1.99258   -0.820492 H        1 UNL1     0.0359
     70 H         1.225978   -2.561498   1.34124 H        1 UNL1     0.0600
     71 H         1.235304   -0.526396   2.091563 H        1 UNL1     0.0348
     72 H         -0.54498   -1.389689   3.511901 H        1 UNL1     0.0602
     73 H         -4.47457   -2.181001   0.468304 H        1 UNL1     0.0628
     74 H         -3.052229   -4.657024   1.611494 H        1 UNL1     0.1022
     75 H         -5.088804   1.988918   11.199678 H        1 UNL1     0.0279
     76 H         -5.060519   3.216529   9.997401 H        1 UNL1     0.0279
     77 H         -6.611076   2.506827   10.603532 H        1 UNL1     0.0279
     78 H         -7.334105   2.618431   8.150743 H        1 UNL1     0.1553
     79 H         -5.749367   3.001149   7.024528 H        1 UNL1     0.1484
     80 H         -4.855974   3.160489   3.334548 H        1 UNL1     0.0317
     81 H         -6.479756   2.802429   3.904682 H        1 UNL1     0.0317
     82 H         -6.27559   4.506137   5.734819 H        1 UNL1     0.0428
     83 H         -6.016902   5.187817   4.144191 H        1 UNL1     0.0428
     84 H         -2.536531   4.317168   6.431575 H        1 UNL1     0.0428
     85 H         -4.055668   3.98939   7.189143 H        1 UNL1     0.0428
     86 H         -2.856746   2.051067   6.174084 H        1 UNL1     0.0317
     87 H         -2.8882   2.723738   4.609195 H        1 UNL1     0.0317
     88 H         -3.187335   6.533702   6.051284 H        1 UNL1     0.0429
     89 H         -4.299469   6.97177   4.75225 H        1 UNL1     0.0429
     90 H         -5.950081   5.841138   6.780157 H        1 UNL1     0.0308
     91 H         -3.574262   6.472205   8.115027 H        1 UNL1     0.0233
     92 H         -4.552252   7.945733   8.333539 H        1 UNL1     0.0233
     93 H         -5.152259   6.398154   8.889952 H        1 UNL1     0.0233
     94 H         -5.473537   8.79766   6.446185 H        1 UNL1     0.0233
     95 H         -6.272495   7.817043   5.207482 H        1 UNL1     0.0233
     96 H         -6.984892   7.949239   6.831984 H        1 UNL1     0.0233
     97 H         -9.666917   -5.044991   4.973936 H        1 UNL1     0.0280
     98 H         -10.56764   -3.933919   3.978243 H        1 UNL1     0.0280
     99 H         -9.107695   -4.731252   3.320555 H        1 UNL1     0.0280
     100 H         -11.022009   -1.929813   5.728188 H        1 UNL1     0.2922
     101 H         -0.626177   -2.714584   5.55162 H        1 UNL1     0.0236
     102 H         -0.202472   -1.532934   6.851712 H        1 UNL1     0.0236
     103 H         0.633158   -1.540464   5.32949 H        1 UNL1     0.0236
     104 H         0.730669   1.159741   3.471845 H        1 UNL1     0.2098
     105 H         -1.228688   0.719921   0.991377 H        1 UNL1     0.0234
     106 H         0.470629   1.270429   1.010357 H        1 UNL1     0.0234
     107 H         0.0   0.0   0.0 H        1 UNL1     0.0234
     108 H         -1.488437   -3.087529   1.098921 H        1 UNL1     0.2098
     109 H         -2.546736   0.611022   -0.498389 H        1 UNL1     0.0234
     110 H         -3.984156   -0.396916   -0.136882 H        1 UNL1     0.0234
     111 H         -2.575241   -0.493499   0.860351 H        1 UNL1     0.0234
     112 H         -1.976496   1.96319   -2.613365 H        1 UNL1     0.0342
     113 H         -0.199651   2.244918   -2.57229 H        1 UNL1     0.0342
     114 H         -1.062841   2.208261   -4.112267 H        1 UNL1     0.0342
     115 H         -0.4415   -4.136233   -1.726571 H        1 UNL1     0.0234
     116 H         1.307057   -3.918299   -1.852429 H        1 UNL1     0.0234
     117 H         0.528397   -4.592414   -0.405742 H        1 UNL1     0.0234
     118 H         -6.994192   -3.133984   0.647171 H        1 UNL1     0.0309
     119 H         -7.216731   -1.642802   1.614082 H        1 UNL1     0.0309
     120 H         -5.757692   -1.931547   0.692133 H        1 UNL1     0.0309
     121 H         -3.049894   -5.588164   0.134027 H        1 UNL1     0.0524
     122 H         -3.492911   -5.280495   -1.549996 H        1 UNL1     0.0524
     123 H         -1.915708   -6.018891   -1.174569 H        1 UNL1     0.0524
@<TRIPOS>BOND
     1     1     2    1
     2     1    42    1
     3     2     3    2
     4     3     4    1
     5     4     5    2
     6     5     7    1
     7     6    75    1
     8     6    76    1
     9     6    77    1
    10     7     9   am
    11     9    10    1
    12    10    11    2
    13    10    43    1
    14    11    14    1
    15    11    15    1
    16    12    13   ar
    17    12    27   ar
    18    12    43    1
    19    13    14    1
    20    13    30   ar
    21    14    17    2
    22    15    16    1
    23    16    17    1
    24    16    18    1
    25    16    22    1
    26    18    19    1
    27    19    20    1
    28    20    21    1
    29    21    22    1
    30    23    24    1
    31    23    88    1
    32    23    89    1
    33    24    25    1
    34    24    26    1
    35    24    90    1
    36    25    91    1
    37    25    92    1
    38    25    93    1
    39    26    94    1
    40    26    95    1
    41    26    96    1
    42    27    28   ar
    43    28    29   ar
    44    29    30   ar
    45    29    31    1
    46    30    33    1
    47    31    32    1
    48    32    33    1
    49    32    35    1
    50    34    97    1
    51    34    98    1
    52    34    99    1
    53    35    61    1
    54    36    37    1
    55    36    60    1
    56    37    38    1
    57    38    39    1
    58    39    40    1
    59    40    41    1
    60    41    42    1
    61    45   100    1
    62    47   101    1
    63    47   102    1
    64    47   103    1
    65    48   104    1
    66    49   105    1
    67    49   106    1
    68    49   107    1
    69    50   108    1
    70    51    59    1
    71    52   109    1
    72    52   110    1
    73    52   111    1
    74    53    54    1
    75    54    55    2
    76    54    56    1
    77    56   112    1
    78    56   113    1
    79    56   114    1
    80    57   115    1
    81    57   116    1
    82    57   117    1
    83    58   118    1
    84    58   119    1
    85    58   120    1
    86    59   121    1
    87    59   122    1
    88    59   123    1
    89    60    61    2
    90     1    47    1
    91     1    62    1
    92     2    63    1
    93     3    64    1
    94     4    65    1
    95     5     6    1
    96     7     8    2
    97     9    78    1
    98    15    79    1
    99    18    80    1
   100    18    81    1
   101    19    82    1
   102    19    83    1
   103    20    23    1
   104    21    84    1
   105    21    85    1
   106    22    86    1
   107    22    87    1
   108    27    45    1
   109    28    34    1
   110    32    58    1
   111    33    46    2
   112    36    51    1
   113    36    66    1
   114    37    52    1
   115    37    67    1
   116    38    53    1
   117    38    68    1
   118    42    48    1
   119    42    72    1
   120    43    44    2
   121    60    73    1
   122    61    74    1
   123    39    69    1
   124    39    57    1
   125    40    70    1
   126    40    50    1
   127    41    71    1
   128    41    49    1
