@<TRIPOS>MOLECULE
*****
 123 128 0 0 0
SMALL
GASTEIGER

@<TRIPOS>ATOM
     1 C         5.167568   1.747196   0.492771 C.3        1 UNL1     0.0009
     2 C         6.604619   2.553207   -0.357091 C.2        1 UNL1     -0.0787
     3 C         7.886582   2.454901   -1.022638 C.2        1 UNL1     -0.0649
     4 C         8.764496   3.690049   -1.777645 C.2        1 UNL1     -0.0542
     5 C         9.78476   3.982742   -2.715979 C.2        1 UNL1     0.0115
     6 C         10.91293   3.357291   -3.581638 C.3        1 UNL1     -0.0348
     7 C         9.880608   5.466185   -3.321949 C.2        1 UNL1     0.2441
     8 O         10.704655   6.287473   -2.94385 O.2        1 UNL1     -0.2702
     9 N         9.130639   5.673769   -4.492678 N.am        1 UNL1     -0.2772
     10 C         7.847978   6.060693   -4.179002 C.2        1 UNL1     0.1049
     11 C         7.001876   5.089411   -3.887549 C.2        1 UNL1     0.0801
     12 C         6.549793   7.667208   -2.767917 C.ar        1 UNL1     0.0753
     13 C         5.79035   6.539345   -2.32095 C.ar        1 UNL1     0.0305
     14 C         5.907029   5.233838   -2.966774 C.2        1 UNL1     0.0924
     15 N         7.124157   3.760455   -4.047083 N.pl3        1 UNL1     -0.3170
     16 C         5.85408   3.161525   -3.733329 C.3        1 UNL1     0.1275
     17 N         5.21778   4.116592   -2.753179 N.2        1 UNL1     -0.2557
     18 C         5.001459   3.221273   -4.997121 C.3        1 UNL1     0.0016
     19 C         5.75634   2.537368   -6.125845 C.3        1 UNL1     0.0026
     20 N         6.026037   1.159057   -5.740423 N.3        1 UNL1     -0.3018
     21 C         6.789143   0.998019   -4.501026 C.3        1 UNL1     0.0026
     22 C         6.010401   1.688361   -3.379918 C.3        1 UNL1     0.0016
     23 C         6.470503   0.339785   -6.850327 C.3        1 UNL1     0.0012
     24 C         5.315153   0.090971   -7.832679 C.3        1 UNL1     -0.0339
     25 C         5.341179   1.094549   -8.997243 C.3        1 UNL1     -0.0615
     26 C         5.354235   -1.343573   -8.330008 C.3        1 UNL1     -0.0615
     27 C         6.345393   8.93477   -2.227893 C.ar        1 UNL1     0.1347
     28 C         5.386249   9.204248   -1.267958 C.ar        1 UNL1     0.0342
     29 C         4.684299   8.069831   -0.808037 C.ar        1 UNL1     0.1435
     30 C         4.903472   6.787919   -1.313888 C.ar        1 UNL1     0.0774
     31 O         3.643198   8.183388   0.045322 O.3        1 UNL1     -0.4436
     32 C         2.921203   6.950816   -0.097385 C.3        1 UNL1     0.3143
     33 C         3.934314   5.957616   -0.629713 C.2        1 UNL1     0.2504
     34 C         4.939715   10.570322   -0.826882 C.3        1 UNL1     -0.0327
     35 O         2.560233   6.513761   1.218645 O.2        1 UNL1     -0.4528
     36 C         -0.683282   4.582607   0.820722 C.3        1 UNL1     0.0854
     37 C         -0.988792   3.322416   -0.077112 C.3        1 UNL1     0.0236
     38 C         -1.589821   2.061267   0.710296 C.3        1 UNL1     0.1131
     39 C         -0.864418   1.529686   2.011634 C.3        1 UNL1     0.0200
     40 C         0.796728   1.383668   2.053017 C.3        1 UNL1     0.0661
     41 C         1.75607   0.614973   0.884095 C.3        1 UNL1     0.0091
     42 C         3.463847   0.977251   0.320486 C.3        1 UNL1     0.0661
     43 C         7.499956   7.459626   -3.888792 C.2        1 UNL1     0.2131
     44 O         7.900201   8.357838   -4.606953 O.2        1 UNL1     -0.2851
     45 O         7.158018   9.969809   -2.685902 O.3        1 UNL1     -0.5056
     46 O         3.949949   4.754033   -0.499342 O.2        1 UNL1     -0.2836
     47 C         5.563585   1.317122   1.930891 C.3        1 UNL1     -0.0566
     48 O         3.912007   -0.434006   0.401865 O.3        1 UNL1     -0.3909
     49 C         0.922014   0.383033   -0.356085 C.3        1 UNL1     -0.0577
     50 O         1.397202   2.601232   2.446328 O.3        1 UNL1     -0.3910
     51 O         -0.807641   4.392498   2.212061 O.3        1 UNL1     -0.3753
     52 C         0.055799   3.162043   -1.229527 C.3        1 UNL1     -0.0564
     53 O         -2.192572   1.022753   -0.189985 O.3        1 UNL1     -0.4608
     54 C         -2.427398   -0.284048   0.149218 C.2        1 UNL1     0.3042
     55 O         -1.858509   -1.283189   -0.28887 O.2        1 UNL1     -0.2512
     56 C         -3.467629   -0.449762   1.220279 C.3        1 UNL1     0.0332
     57 C         -1.585456   2.198458   3.272992 C.3        1 UNL1     -0.0567
     58 C         1.846245   7.196569   -1.181635 C.3        1 UNL1     0.0210
     59 C         -1.120625   5.571343   2.952487 C.3        1 UNL1     0.0372
     60 C         0.645924   5.211398   0.590521 C.2        1 UNL1     -0.0208
     61 C         1.558847   5.646086   1.460212 C.2        1 UNL1     0.0882
     62 H         4.691908   2.731472   0.580293 H        1 UNL1     0.0365
     63 H         6.33865   3.607046   -0.251477 H        1 UNL1     0.0576
     64 H         8.344   1.487997   -1.243937 H        1 UNL1     0.0615
     65 H         8.277616   4.605466   -1.430597 H        1 UNL1     0.0622
     66 H         -1.427677   5.329445   0.510633 H        1 UNL1     0.0645
     67 H         -1.85416   3.632225   -0.688434 H        1 UNL1     0.0362
     68 H         -2.536823   2.498291   1.062035 H        1 UNL1     0.0741
     69 H         -1.196253   0.518616   2.206652 H        1 UNL1     0.0359
     70 H         0.908185   0.723015   2.934025 H        1 UNL1     0.0600
     71 H         1.799303   -0.406345   1.310706 H        1 UNL1     0.0348
     72 H         3.357955   1.465163   1.300304 H        1 UNL1     0.0602
     73 H         0.764031   5.408955   -0.445949 H        1 UNL1     0.0628
     74 H         1.541082   5.435075   2.529976 H        1 UNL1     0.1022
     75 H         10.957079   2.251949   -3.428977 H        1 UNL1     0.0279
     76 H         10.799482   3.440466   -4.660193 H        1 UNL1     0.0279
     77 H         11.918042   3.661606   -3.254767 H        1 UNL1     0.0279
     78 H         9.068473   4.80401   -5.017779 H        1 UNL1     0.1553
     79 H         7.789399   3.33248   -4.664516 H        1 UNL1     0.1484
     80 H         4.040011   2.730545   -4.803289 H        1 UNL1     0.0317
     81 H         4.775182   4.258178   -5.267818 H        1 UNL1     0.0317
     82 H         6.687188   3.06849   -6.373519 H        1 UNL1     0.0428
     83 H         5.131335   2.592978   -7.017656 H        1 UNL1     0.0428
     84 H         6.909125   -0.045068   -4.19218 H        1 UNL1     0.0428
     85 H         7.819355   1.365796   -4.604572 H        1 UNL1     0.0428
     86 H         6.52662   1.437557   -2.471841 H        1 UNL1     0.0317
     87 H         5.030804   1.210959   -3.255129 H        1 UNL1     0.0317
     88 H         7.266797   0.88153   -7.377323 H        1 UNL1     0.0429
     89 H         6.902781   -0.606223   -6.499644 H        1 UNL1     0.0429
     90 H         4.362243   0.197774   -7.300919 H        1 UNL1     0.0308
     91 H         6.291352   1.051731   -9.538019 H        1 UNL1     0.0233
     92 H         4.522794   0.898964   -9.694094 H        1 UNL1     0.0233
     93 H         5.213982   2.130073   -8.65909 H        1 UNL1     0.0233
     94 H         4.65919   -1.472303   -9.166774 H        1 UNL1     0.0233
     95 H         6.358984   -1.588504   -8.685605 H        1 UNL1     0.0233
     96 H         5.078052   -2.047483   -7.539944 H        1 UNL1     0.0233
     97 H         4.14415   10.520568   -0.089433 H        1 UNL1     0.0280
     98 H         5.751758   11.138827   -0.355028 H        1 UNL1     0.0280
     99 H         4.569257   11.136368   -1.697197 H        1 UNL1     0.0280
     100 H         6.69124   10.720392   -3.008958 H        1 UNL1     0.2922
     101 H         4.700576   0.883561   2.435764 H        1 UNL1     0.0236
     102 H         6.014505   2.122155   2.51018 H        1 UNL1     0.0236
     103 H         6.31961   0.514242   1.929644 H        1 UNL1     0.0236
     104 H         4.331378   -0.560392   1.275435 H        1 UNL1     0.2098
     105 H         0.709701   1.282107   -0.929147 H        1 UNL1     0.0234
     106 H         1.291279   -0.404882   -1.012409 H        1 UNL1     0.0234
     107 H         0.0   -0.0   0.0 H        1 UNL1     0.0234
     108 H         1.199536   3.259577   1.752585 H        1 UNL1     0.2098
     109 H         1.080547   3.048161   -0.849218 H        1 UNL1     0.0234
     110 H         -0.176774   2.335224   -1.909251 H        1 UNL1     0.0234
     111 H         0.077331   4.045058   -1.882034 H        1 UNL1     0.0234
     112 H         -3.600462   -1.511555   1.448965 H        1 UNL1     0.0342
     113 H         -3.224386   0.115896   2.118448 H        1 UNL1     0.0342
     114 H         -4.422066   -0.066528   0.833825 H        1 UNL1     0.0342
     115 H         -2.655154   1.950466   3.310862 H        1 UNL1     0.0234
     116 H         -1.149216   1.91827   4.233846 H        1 UNL1     0.0234
     117 H         -1.623742   3.30034   3.224709 H        1 UNL1     0.0234
     118 H         0.945246   7.683593   -0.769307 H        1 UNL1     0.0309
     119 H         2.2159   7.784719   -2.027588 H        1 UNL1     0.0309
     120 H         1.457478   6.264852   -1.606925 H        1 UNL1     0.0309
     121 H         -0.299361   6.274325   2.815744 H        1 UNL1     0.0524
     122 H         -2.040233   6.060754   2.590777 H        1 UNL1     0.0524
     123 H         -1.238815   5.3333   4.005797 H        1 UNL1     0.0524
@<TRIPOS>BOND
     1     1     2    1
     2     1    42    1
     3     2     3    2
     4     3     4    1
     5     4     5    2
     6     5     7    1
     7     6    75    1
     8     6    76    1
     9     6    77    1
    10     7     9   am
    11     9    10    1
    12    10    11    2
    13    10    43    1
    14    11    14    1
    15    11    15    1
    16    12    13   ar
    17    12    27   ar
    18    12    43    1
    19    13    14    1
    20    13    30   ar
    21    14    17    2
    22    15    16    1
    23    16    17    1
    24    16    18    1
    25    16    22    1
    26    18    19    1
    27    19    20    1
    28    20    21    1
    29    21    22    1
    30    23    24    1
    31    23    88    1
    32    23    89    1
    33    24    25    1
    34    24    26    1
    35    24    90    1
    36    25    91    1
    37    25    92    1
    38    25    93    1
    39    26    94    1
    40    26    95    1
    41    26    96    1
    42    27    28   ar
    43    28    29   ar
    44    29    30   ar
    45    29    31    1
    46    30    33    1
    47    31    32    1
    48    32    33    1
    49    32    35    1
    50    34    97    1
    51    34    98    1
    52    34    99    1
    53    35    61    1
    54    36    37    1
    55    36    60    1
    56    37    38    1
    57    38    39    1
    58    39    40    1
    59    40    41    1
    60    41    42    1
    61    45   100    1
    62    47   101    1
    63    47   102    1
    64    47   103    1
    65    48   104    1
    66    49   105    1
    67    49   106    1
    68    49   107    1
    69    50   108    1
    70    51    59    1
    71    52   109    1
    72    52   110    1
    73    52   111    1
    74    53    54    1
    75    54    55    2
    76    54    56    1
    77    56   112    1
    78    56   113    1
    79    56   114    1
    80    57   115    1
    81    57   116    1
    82    57   117    1
    83    58   118    1
    84    58   119    1
    85    58   120    1
    86    59   121    1
    87    59   122    1
    88    59   123    1
    89    60    61    2
    90     1    47    1
    91     1    62    1
    92     2    63    1
    93     3    64    1
    94     4    65    1
    95     5     6    1
    96     7     8    2
    97     9    78    1
    98    15    79    1
    99    18    80    1
   100    18    81    1
   101    19    82    1
   102    19    83    1
   103    20    23    1
   104    21    84    1
   105    21    85    1
   106    22    86    1
   107    22    87    1
   108    27    45    1
   109    28    34    1
   110    32    58    1
   111    33    46    2
   112    36    51    1
   113    36    66    1
   114    37    52    1
   115    37    67    1
   116    38    53    1
   117    38    68    1
   118    42    48    1
   119    42    72    1
   120    43    44    2
   121    60    73    1
   122    61    74    1
   123    39    69    1
   124    39    57    1
   125    40    70    1
   126    40    50    1
   127    41    71    1
   128    41    49    1
