@<TRIPOS>MOLECULE
*****
 123 128 0 0 0
SMALL
GASTEIGER

@<TRIPOS>ATOM
     1 C         3.414309   1.970432   3.804162 C.3        1 UNL1     0.0009
     2 C         3.737608   2.172904   5.618416 C.2        1 UNL1     -0.0787
     3 C         3.737579   2.994901   6.810207 C.2        1 UNL1     -0.0649
     4 C         4.078588   2.522794   8.399919 C.2        1 UNL1     -0.0542
     5 C         3.922743   2.854601   9.768384 C.2        1 UNL1     0.0115
     6 C         3.465836   3.971779   10.746377 C.3        1 UNL1     -0.0348
     7 C         4.145941   1.713125   10.874821 C.2        1 UNL1     0.2441
     8 O         5.16669   1.624822   11.543253 O.2        1 UNL1     -0.2702
     9 N         2.992142   0.982691   11.208536 N.am        1 UNL1     -0.2772
     10 C         2.844106   -0.093488   10.363996 C.2        1 UNL1     0.1049
     11 C         2.27106   0.15444   9.200221 C.2        1 UNL1     0.0801
     12 C         4.085926   -2.030901   9.38336 C.ar        1 UNL1     0.0753
     13 C         3.603488   -1.594076   8.108587 C.ar        1 UNL1     0.0305
     14 C         2.573357   -0.564351   7.992193 C.2        1 UNL1     0.0924
     15 N         1.613346   1.247377   8.776631 N.pl3        1 UNL1     -0.3170
     16 C         1.035651   0.943166   7.494454 C.3        1 UNL1     0.1275
     17 N         1.94397   -0.111738   6.91148 N.2        1 UNL1     -0.2557
     18 C         -0.301349   0.255093   7.752693 C.3        1 UNL1     0.0016
     19 C         -1.153987   1.161389   8.626321 C.3        1 UNL1     0.0026
     20 N         -1.342464   2.431419   7.938915 N.3        1 UNL1     -0.3018
     21 C         -0.108635   3.139867   7.59231 C.3        1 UNL1     0.0026
     22 C         0.730393   2.212992   6.710931 C.3        1 UNL1     0.0016
     23 C         -2.376683   3.249885   8.539871 C.3        1 UNL1     0.0012
     24 C         -3.762966   2.635457   8.289965 C.3        1 UNL1     -0.0339
     25 C         -4.818941   3.225306   9.239203 C.3        1 UNL1     -0.0615
     26 C         -4.157382   2.81485   6.834275 C.3        1 UNL1     -0.0615
     27 C         4.977979   -3.095175   9.491435 C.ar        1 UNL1     0.1347
     28 C         5.4258   -3.822577   8.403137 C.ar        1 UNL1     0.0342
     29 C         4.975887   -3.34357   7.154419 C.ar        1 UNL1     0.1435
     30 C         4.110721   -2.256006   7.028273 C.ar        1 UNL1     0.0774
     31 O         5.23547   -4.010543   6.008657 O.3        1 UNL1     -0.4436
     32 C         4.262118   -3.519478   5.074681 C.3        1 UNL1     0.3143
     33 C         3.852923   -2.16085   5.606565 C.2        1 UNL1     0.2504
     34 C         6.177462   -5.123255   8.460937 C.3        1 UNL1     -0.0327
     35 O         4.939594   -3.294352   3.832265 O.2        1 UNL1     -0.4528
     36 C         2.349138   -3.862394   1.116579 C.3        1 UNL1     0.0854
     37 C         0.956229   -3.15365   0.904424 C.3        1 UNL1     0.0236
     38 C         0.750867   -2.485264   -0.538777 C.3        1 UNL1     0.1131
     39 C         1.85296   -1.507944   -1.115411 C.3        1 UNL1     0.0200
     40 C         2.551508   -0.351183   -0.137468 C.3        1 UNL1     0.0661
     41 C         1.71993   0.745411   0.854283 C.3        1 UNL1     0.0091
     42 C         2.190264   1.485747   2.465523 C.3        1 UNL1     0.0661
     43 C         3.535619   -1.370838   10.593211 C.2        1 UNL1     0.2131
     44 O         3.546584   -1.877731   11.700314 O.2        1 UNL1     -0.2851
     45 O         5.434192   -3.427701   10.765301 O.3        1 UNL1     -0.5056
     46 O         3.430375   -1.207094   4.992027 O.2        1 UNL1     -0.2836
     47 C         4.523308   2.674529   2.976908 C.3        1 UNL1     -0.0566
     48 O         1.827958   2.867082   2.065816 O.3        1 UNL1     -0.3909
     49 C         0.280781   0.29705   0.97803 C.3        1 UNL1     -0.0577
     50 O         3.66077   -0.885298   0.556781 O.3        1 UNL1     -0.3910
     51 O         3.298611   -3.674087   0.091653 O.3        1 UNL1     -0.3753
     52 C         0.443632   -2.473748   2.215885 C.3        1 UNL1     -0.0564
     53 O         -0.676826   -2.134643   -0.840577 O.3        1 UNL1     -0.4608
     54 C         -1.095125   -1.023278   -1.524554 C.2        1 UNL1     0.3042
     55 O         -0.428526   -0.031234   -1.816673 O.2        1 UNL1     -0.2512
     56 C         -2.520185   -1.106137   -1.992585 C.3        1 UNL1     0.0332
     57 C         2.817528   -2.369994   -2.05597 C.3        1 UNL1     -0.0567
     58 C         3.049855   -4.475587   5.163025 C.3        1 UNL1     0.0210
     59 C         3.065564   -2.538362   -0.740021 C.3        1 UNL1     0.0372
     60 C         3.031368   -3.537169   2.398745 C.2        1 UNL1     -0.0208
     61 C         4.304977   -3.22821   2.646148 C.2        1 UNL1     0.0882
     62 H         3.708097   0.917234   3.888864 H        1 UNL1     0.0365
     63 H         4.168489   1.198625   5.858403 H        1 UNL1     0.0576
     64 H         3.338817   4.011789   6.804199 H        1 UNL1     0.0615
     65 H         4.540003   1.538105   8.286054 H        1 UNL1     0.0622
     66 H         2.108941   -4.933782   1.166374 H        1 UNL1     0.0645
     67 H         0.234292   -3.98779   0.864717 H        1 UNL1     0.0362
     68 H         0.802356   -3.386862   -1.168055 H        1 UNL1     0.0741
     69 H         1.41313   -0.915428   -1.906539 H        1 UNL1     0.0359
     70 H         2.997851   0.305879   -0.908251 H        1 UNL1     0.0600
     71 H         1.621667   1.600482   0.157035 H        1 UNL1     0.0348
     72 H         3.125373   1.124974   2.013053 H        1 UNL1     0.0602
     73 H         2.359961   -3.704857   3.203942 H        1 UNL1     0.0628
     74 H         5.040617   -2.984427   1.878919 H        1 UNL1     0.1022
     75 H         3.079556   4.853891   10.180956 H        1 UNL1     0.0279
     76 H         2.632567   3.731026   11.402707 H        1 UNL1     0.0279
     77 H         4.303116   4.419716   11.301369 H        1 UNL1     0.0279
     78 H         2.17014   1.573025   11.099465 H        1 UNL1     0.1553
     79 H         1.234133   1.942859   9.392615 H        1 UNL1     0.1484
     80 H         -0.789309   0.050013   6.792171 H        1 UNL1     0.0317
     81 H         -0.154783   -0.713348   8.242888 H        1 UNL1     0.0317
     82 H         -0.703759   1.311405   9.618644 H        1 UNL1     0.0428
     83 H         -2.101788   0.650804   8.799603 H        1 UNL1     0.0428
     84 H         -0.274849   4.049805   7.007333 H        1 UNL1     0.0428
     85 H         0.425897   3.491003   8.485785 H        1 UNL1     0.0428
     86 H         1.556887   2.808138   6.369324 H        1 UNL1     0.0317
     87 H         0.186338   1.980324   5.78737 H        1 UNL1     0.0317
     88 H         -2.199395   3.283566   9.622797 H        1 UNL1     0.0429
     89 H         -2.329956   4.283687   8.174023 H        1 UNL1     0.0429
     90 H         -3.71101   1.552734   8.454965 H        1 UNL1     0.0308
     91 H         -4.750947   4.316513   9.281003 H        1 UNL1     0.0233
     92 H         -5.825063   2.94053   8.922612 H        1 UNL1     0.0233
     93 H         -4.706974   2.859979   10.267228 H        1 UNL1     0.0233
     94 H         -5.245384   2.747639   6.726707 H        1 UNL1     0.0233
     95 H         -3.844002   3.801266   6.481091 H        1 UNL1     0.0233
     96 H         -3.699542   2.050851   6.199724 H        1 UNL1     0.0233
     97 H         7.190615   -4.992336   8.829191 H        1 UNL1     0.0280
     98 H         5.702781   -5.845823   9.137569 H        1 UNL1     0.0280
     99 H         6.230768   -5.563842   7.45191 H        1 UNL1     0.0280
     100 H         4.775836   -3.782008   11.336839 H        1 UNL1     0.2922
     101 H         4.300924   2.586257   1.913701 H        1 UNL1     0.0236
     102 H         5.525847   2.32119   3.215763 H        1 UNL1     0.0236
     103 H         4.555356   3.760377   3.16691 H        1 UNL1     0.0236
     104 H         2.091234   2.982524   1.13183 H        1 UNL1     0.2098
     105 H         0.130288   -0.552218   1.639777 H        1 UNL1     0.0234
     106 H         -0.424951   1.092338   1.217587 H        1 UNL1     0.0234
     107 H         -0.0   0.0   0.0 H        1 UNL1     0.0234
     108 H         3.886256   -0.257513   1.27009 H        1 UNL1     0.2098
     109 H         0.298103   -3.197343   3.030097 H        1 UNL1     0.0234
     110 H         1.090968   -1.660022   2.560194 H        1 UNL1     0.0234
     111 H         -0.532433   -1.992855   2.067616 H        1 UNL1     0.0234
     112 H         -3.014335   -0.139783   -1.853588 H        1 UNL1     0.0342
     113 H         -2.592752   -1.436781   -3.027598 H        1 UNL1     0.0342
     114 H         -3.043478   -1.844654   -1.369751 H        1 UNL1     0.0342
     115 H         3.199478   -1.779394   -2.900064 H        1 UNL1     0.0234
     116 H         3.678488   -2.796287   -1.537249 H        1 UNL1     0.0234
     117 H         2.29955   -3.188122   -2.58541 H        1 UNL1     0.0234
     118 H         2.09032   -3.938965   5.061358 H        1 UNL1     0.0309
     119 H         3.08695   -5.285477   4.427563 H        1 UNL1     0.0309
     120 H         2.966305   -4.959047   6.14251 H        1 UNL1     0.0309
     121 H         3.527331   -2.737322   -1.706739 H        1 UNL1     0.0524
     122 H         1.991299   -2.361588   -0.915357 H        1 UNL1     0.0524
     123 H         3.500775   -1.649249   -0.292624 H        1 UNL1     0.0524
@<TRIPOS>BOND
     1     1     2    1
     2     1    42    1
     3     2     3    2
     4     3     4    1
     5     4     5    2
     6     5     7    1
     7     6    75    1
     8     6    76    1
     9     6    77    1
    10     7     9   am
    11     9    10    1
    12    10    11    2
    13    10    43    1
    14    11    14    1
    15    11    15    1
    16    12    13   ar
    17    12    27   ar
    18    12    43    1
    19    13    14    1
    20    13    30   ar
    21    14    17    2
    22    15    16    1
    23    16    17    1
    24    16    18    1
    25    16    22    1
    26    18    19    1
    27    19    20    1
    28    20    21    1
    29    21    22    1
    30    23    24    1
    31    23    88    1
    32    23    89    1
    33    24    25    1
    34    24    26    1
    35    24    90    1
    36    25    91    1
    37    25    92    1
    38    25    93    1
    39    26    94    1
    40    26    95    1
    41    26    96    1
    42    27    28   ar
    43    28    29   ar
    44    29    30   ar
    45    29    31    1
    46    30    33    1
    47    31    32    1
    48    32    33    1
    49    32    35    1
    50    34    97    1
    51    34    98    1
    52    34    99    1
    53    35    61    1
    54    36    37    1
    55    36    60    1
    56    37    38    1
    57    38    39    1
    58    39    40    1
    59    40    41    1
    60    41    42    1
    61    45   100    1
    62    47   101    1
    63    47   102    1
    64    47   103    1
    65    48   104    1
    66    49   105    1
    67    49   106    1
    68    49   107    1
    69    50   108    1
    70    51    59    1
    71    52   109    1
    72    52   110    1
    73    52   111    1
    74    53    54    1
    75    54    55    2
    76    54    56    1
    77    56   112    1
    78    56   113    1
    79    56   114    1
    80    57   115    1
    81    57   116    1
    82    57   117    1
    83    58   118    1
    84    58   119    1
    85    58   120    1
    86    59   121    1
    87    59   122    1
    88    59   123    1
    89    60    61    2
    90     1    47    1
    91     1    62    1
    92     2    63    1
    93     3    64    1
    94     4    65    1
    95     5     6    1
    96     7     8    2
    97     9    78    1
    98    15    79    1
    99    18    80    1
   100    18    81    1
   101    19    82    1
   102    19    83    1
   103    20    23    1
   104    21    84    1
   105    21    85    1
   106    22    86    1
   107    22    87    1
   108    27    45    1
   109    28    34    1
   110    32    58    1
   111    33    46    2
   112    36    51    1
   113    36    66    1
   114    37    52    1
   115    37    67    1
   116    38    53    1
   117    38    68    1
   118    42    48    1
   119    42    72    1
   120    43    44    2
   121    60    73    1
   122    61    74    1
   123    39    69    1
   124    39    57    1
   125    40    70    1
   126    40    50    1
   127    41    71    1
   128    41    49    1
