@<TRIPOS>MOLECULE
*****
 123 128 0 0 0
SMALL
GASTEIGER

@<TRIPOS>ATOM
     1 C         3.007378   2.380684   -3.173958 C.3        1 UNL1     0.0009
     2 C         4.334567   3.667566   -3.034161 C.2        1 UNL1     -0.0787
     3 C         4.830307   4.997061   -3.321792 C.2        1 UNL1     -0.0649
     4 C         6.250099   5.72368   -2.753836 C.2        1 UNL1     -0.0542
     5 C         6.917292   6.954132   -2.534935 C.2        1 UNL1     0.0115
     6 C         6.862851   8.480738   -2.817486 C.3        1 UNL1     -0.0348
     7 C         8.167724   6.991595   -1.52895 C.2        1 UNL1     0.2441
     8 O         9.329214   7.020232   -1.911894 O.2        1 UNL1     -0.2702
     9 N         7.837059   7.25261   -0.1878 N.am        1 UNL1     -0.2772
     10 C         7.549441   6.080327   0.47277 C.2        1 UNL1     0.1049
     11 C         6.321068   5.6172   0.32843 C.2        1 UNL1     0.0801
     12 C         8.414591   3.768621   0.878803 C.ar        1 UNL1     0.0753
     13 C         7.113342   3.301153   0.508891 C.ar        1 UNL1     0.0305
     14 C         5.987483   4.218748   0.349169 C.2        1 UNL1     0.0924
     15 N         5.230658   6.207639   -0.190139 N.pl3        1 UNL1     -0.3170
     16 C         4.107243   5.340039   0.045368 C.3        1 UNL1     0.1275
     17 N         4.705732   3.95609   0.110315 N.2        1 UNL1     -0.2557
     18 C         3.588022   5.643114   1.447601 C.3        1 UNL1     0.0016
     19 C         3.265389   7.126203   1.53673 C.3        1 UNL1     0.0026
     20 N         2.266746   7.449167   0.527059 N.3        1 UNL1     -0.3018
     21 C         2.651285   7.135026   -0.850552 C.3        1 UNL1     0.0026
     22 C         2.966462   5.639704   -0.91815 C.3        1 UNL1     0.0016
     23 C         1.672691   8.757099   0.719559 C.3        1 UNL1     0.0012
     24 C         1.848843   9.219839   2.174413 C.3        1 UNL1     -0.0339
     25 C         3.334471   9.306543   2.560996 C.3        1 UNL1     -0.0615
     26 C         1.137055   10.544182   2.389479 C.3        1 UNL1     -0.0615
     27 C         9.451984   2.878638   1.146876 C.ar        1 UNL1     0.1347
     28 C         9.298459   1.504022   1.116657 C.ar        1 UNL1     0.0342
     29 C         8.022243   1.067086   0.702504 C.ar        1 UNL1     0.1435
     30 C         6.9838   1.947293   0.395762 C.ar        1 UNL1     0.0774
     31 O         7.682314   -0.240128   0.727939 O.3        1 UNL1     -0.4436
     32 C         6.246831   -0.241939   0.711901 C.3        1 UNL1     0.3143
     33 C         5.855807   1.088512   0.100988 C.2        1 UNL1     0.2504
     34 C         10.2862   0.494971   1.632683 C.3        1 UNL1     -0.0327
     35 O         5.832379   -1.260671   -0.206612 O.2        1 UNL1     -0.4528
     36 C         2.490525   -2.522369   1.077217 C.3        1 UNL1     0.0854
     37 C         1.161459   -1.719128   1.352737 C.3        1 UNL1     0.0236
     38 C         -0.136268   -2.279549   0.595389 C.3        1 UNL1     0.1131
     39 C         -0.080743   -2.54991   -0.962203 C.3        1 UNL1     0.0200
     40 C         0.643531   -1.449509   -1.985425 C.3        1 UNL1     0.0661
     41 C         0.348062   0.220588   -2.018364 C.3        1 UNL1     0.0091
     42 C         1.464794   1.618913   -2.422093 C.3        1 UNL1     0.0661
     43 C         8.599007   5.230571   1.054732 C.2        1 UNL1     0.2131
     44 O         9.492097   5.720868   1.721618 O.2        1 UNL1     -0.2851
     45 O         10.699778   3.41644   1.455451 O.3        1 UNL1     -0.5056
     46 O         4.849659   1.370148   -0.510733 O.2        1 UNL1     -0.2836
     47 C         2.996962   1.76957   -4.600987 C.3        1 UNL1     -0.0566
     48 O         0.495829   2.279621   -3.329665 O.3        1 UNL1     -0.3909
     49 C         -0.408351   0.607117   -0.766993 C.3        1 UNL1     -0.0577
     50 O         2.031536   -1.69669   -2.085763 O.3        1 UNL1     -0.3910
     51 O         2.415482   -3.513119   0.07711 O.3        1 UNL1     -0.3753
     52 C         1.4308   -0.187773   1.518132 C.3        1 UNL1     -0.0564
     53 O         -1.427342   -1.735471   1.133379 O.3        1 UNL1     -0.4608
     54 C         -2.606042   -2.4286   1.223754 C.2        1 UNL1     0.3042
     55 O         -3.507069   -2.482001   0.387609 O.2        1 UNL1     -0.2512
     56 C         -2.732063   -3.239216   2.482219 C.3        1 UNL1     0.0332
     57 C         0.260522   -4.09849   -1.171038 C.3        1 UNL1     -0.0567
     58 C         5.792906   -0.264806   2.190062 C.3        1 UNL1     0.0210
     59 C         2.251151   -4.844432   0.56339 C.3        1 UNL1     0.0372
     60 C         3.678555   -1.683173   0.761788 C.2        1 UNL1     -0.0208
     61 C         4.60817   -1.821748   -0.184445 C.2        1 UNL1     0.0882
     62 H         3.615879   1.713083   -2.552068 H        1 UNL1     0.0365
     63 H         5.111059   3.103464   -2.513279 H        1 UNL1     0.0576
     64 H         4.212895   5.740466   -3.830966 H        1 UNL1     0.0615
     65 H         6.822159   4.889144   -2.339373 H        1 UNL1     0.0622
     66 H         2.716523   -3.017867   2.031917 H        1 UNL1     0.0645
     67 H         0.920001   -1.952921   2.404211 H        1 UNL1     0.0362
     68 H         -0.206315   -3.274058   1.061832 H        1 UNL1     0.0741
     69 H         -1.092088   -2.598095   -1.343344 H        1 UNL1     0.0359
     70 H         0.231164   -1.790102   -2.954451 H        1 UNL1     0.0600
     71 H         -0.456285   0.25961   -2.77893 H        1 UNL1     0.0348
     72 H         1.933825   0.722218   -2.852515 H        1 UNL1     0.0602
     73 H         3.79519   -0.945306   1.51624 H        1 UNL1     0.0628
     74 H         4.534659   -2.513147   -1.024564 H        1 UNL1     0.1022
     75 H         6.526808   9.035879   -1.90868 H        1 UNL1     0.0279
     76 H         7.808363   8.964834   -3.051427 H        1 UNL1     0.0279
     77 H         6.078689   8.7519   -3.53947 H        1 UNL1     0.0279
     78 H         7.005594   7.838428   -0.148294 H        1 UNL1     0.1553
     79 H         5.136429   7.199952   -0.305765 H        1 UNL1     0.1484
     80 H         2.700972   5.02792   1.641109 H        1 UNL1     0.0317
     81 H         4.329498   5.371493   2.206604 H        1 UNL1     0.0317
     82 H         4.165563   7.746667   1.415796 H        1 UNL1     0.0428
     83 H         2.898615   7.320778   2.545029 H        1 UNL1     0.0428
     84 H         1.854616   7.312557   -1.579669 H        1 UNL1     0.0428
     85 H         3.478032   7.769394   -1.198955 H        1 UNL1     0.0428
     86 H         3.112936   5.421466   -1.959738 H        1 UNL1     0.0317
     87 H         2.074095   5.056614   -0.65972 H        1 UNL1     0.0317
     88 H         2.190328   9.467483   0.061759 H        1 UNL1     0.0429
     89 H         0.614487   8.761247   0.428079 H        1 UNL1     0.0429
     90 H         1.355695   8.502947   2.841559 H        1 UNL1     0.0308
     91 H         3.961797   8.752428   1.856352 H        1 UNL1     0.0233
     92 H         3.665019   10.34735   2.593674 H        1 UNL1     0.0233
     93 H         3.531764   8.891636   3.556869 H        1 UNL1     0.0233
     94 H         1.7353   11.365362   1.980086 H        1 UNL1     0.0233
     95 H         0.173433   10.53874   1.872405 H        1 UNL1     0.0233
     96 H         0.966296   10.73746   3.452236 H        1 UNL1     0.0233
     97 H         11.306011   0.865989   1.593185 H        1 UNL1     0.0280
     98 H         10.101515   0.234835   2.683149 H        1 UNL1     0.0280
     99 H         10.228455   -0.422478   1.024367 H        1 UNL1     0.0280
     100 H         10.989281   4.094608   0.870729 H        1 UNL1     0.2922
     101 H         3.46932   0.787611   -4.583887 H        1 UNL1     0.0236
     102 H         3.440621   2.42383   -5.350716 H        1 UNL1     0.0236
     103 H         1.972566   1.58108   -4.963309 H        1 UNL1     0.0236
     104 H         -0.130962   1.59688   -3.63945 H        1 UNL1     0.2098
     105 H         -0.284978   1.645688   -0.470412 H        1 UNL1     0.0234
     106 H         -1.464681   0.338664   -0.772217 H        1 UNL1     0.0234
     107 H         0.0   0.0   0.0 H        1 UNL1     0.0234
     108 H         2.297896   -2.185522   -1.283352 H        1 UNL1     0.2098
     109 H         0.618622   0.321817   2.055159 H        1 UNL1     0.0234
     110 H         2.386605   0.03085   2.006379 H        1 UNL1     0.0234
     111 H         1.506902   0.317104   0.54589 H        1 UNL1     0.0234
     112 H         -2.64515   -2.586108   3.355856 H        1 UNL1     0.0342
     113 H         -3.659567   -3.809079   2.511144 H        1 UNL1     0.0342
     114 H         -1.89991   -3.955953   2.513433 H        1 UNL1     0.0342
     115 H         -0.643966   -4.72201   -1.153368 H        1 UNL1     0.0234
     116 H         0.790384   -4.314855   -2.100814 H        1 UNL1     0.0234
     117 H         0.838347   -4.53763   -0.339644 H        1 UNL1     0.0234
     118 H         5.970833   -1.246347   2.66327 H        1 UNL1     0.0309
     119 H         6.263758   0.515636   2.796206 H        1 UNL1     0.0309
     120 H         4.712147   -0.12356   2.300133 H        1 UNL1     0.0309
     121 H         1.578708   -5.363932   -0.118737 H        1 UNL1     0.0524
     122 H         3.201632   -5.40324   0.582285 H        1 UNL1     0.0524
     123 H         1.830947   -4.829514   1.565038 H        1 UNL1     0.0524
@<TRIPOS>BOND
     1     1     2    1
     2     1    42    1
     3     2     3    2
     4     3     4    1
     5     4     5    2
     6     5     7    1
     7     6    75    1
     8     6    76    1
     9     6    77    1
    10     7     9   am
    11     9    10    1
    12    10    11    2
    13    10    43    1
    14    11    14    1
    15    11    15    1
    16    12    13   ar
    17    12    27   ar
    18    12    43    1
    19    13    14    1
    20    13    30   ar
    21    14    17    2
    22    15    16    1
    23    16    17    1
    24    16    18    1
    25    16    22    1
    26    18    19    1
    27    19    20    1
    28    20    21    1
    29    21    22    1
    30    23    24    1
    31    23    88    1
    32    23    89    1
    33    24    25    1
    34    24    26    1
    35    24    90    1
    36    25    91    1
    37    25    92    1
    38    25    93    1
    39    26    94    1
    40    26    95    1
    41    26    96    1
    42    27    28   ar
    43    28    29   ar
    44    29    30   ar
    45    29    31    1
    46    30    33    1
    47    31    32    1
    48    32    33    1
    49    32    35    1
    50    34    97    1
    51    34    98    1
    52    34    99    1
    53    35    61    1
    54    36    37    1
    55    36    60    1
    56    37    38    1
    57    38    39    1
    58    39    40    1
    59    40    41    1
    60    41    42    1
    61    45   100    1
    62    47   101    1
    63    47   102    1
    64    47   103    1
    65    48   104    1
    66    49   105    1
    67    49   106    1
    68    49   107    1
    69    50   108    1
    70    51    59    1
    71    52   109    1
    72    52   110    1
    73    52   111    1
    74    53    54    1
    75    54    55    2
    76    54    56    1
    77    56   112    1
    78    56   113    1
    79    56   114    1
    80    57   115    1
    81    57   116    1
    82    57   117    1
    83    58   118    1
    84    58   119    1
    85    58   120    1
    86    59   121    1
    87    59   122    1
    88    59   123    1
    89    60    61    2
    90     1    47    1
    91     1    62    1
    92     2    63    1
    93     3    64    1
    94     4    65    1
    95     5     6    1
    96     7     8    2
    97     9    78    1
    98    15    79    1
    99    18    80    1
   100    18    81    1
   101    19    82    1
   102    19    83    1
   103    20    23    1
   104    21    84    1
   105    21    85    1
   106    22    86    1
   107    22    87    1
   108    27    45    1
   109    28    34    1
   110    32    58    1
   111    33    46    2
   112    36    51    1
   113    36    66    1
   114    37    52    1
   115    37    67    1
   116    38    53    1
   117    38    68    1
   118    42    48    1
   119    42    72    1
   120    43    44    2
   121    60    73    1
   122    61    74    1
   123    39    69    1
   124    39    57    1
   125    40    70    1
   126    40    50    1
   127    41    71    1
   128    41    49    1
