@<TRIPOS>MOLECULE
*****
 123 128 0 0 0
SMALL
GASTEIGER

@<TRIPOS>ATOM
     1 C         -0.097679   -4.003773   -3.718767 C.3        1 UNL1     0.0009
     2 C         -1.125126   -5.349459   -4.474094 C.2        1 UNL1     -0.0787
     3 C         -1.435506   -6.754835   -4.631033 C.2        1 UNL1     -0.0649
     4 C         -2.727475   -7.446828   -5.478571 C.2        1 UNL1     -0.0542
     5 C         -3.523778   -8.607953   -5.635947 C.2        1 UNL1     0.0115
     6 C         -3.652235   -10.106014   -5.245263 C.3        1 UNL1     -0.0348
     7 C         -4.942297   -8.482558   -6.376939 C.2        1 UNL1     0.2441
     8 O         -5.120164   -8.828948   -7.536639 O.2        1 UNL1     -0.2702
     9 N         -6.026001   -8.193656   -5.529429 N.am        1 UNL1     -0.2772
     10 C         -6.168435   -6.833388   -5.378746 C.2        1 UNL1     0.1049
     11 C         -5.393426   -6.263731   -4.473719 C.2        1 UNL1     0.0801
     12 C         -6.292866   -4.696537   -6.673243 C.ar        1 UNL1     0.0753
     13 C         -5.290395   -4.191577   -5.785169 C.ar        1 UNL1     0.0305
     14 C         -4.904557   -4.915423   -4.575943 C.2        1 UNL1     0.0924
     15 N         -4.627981   -6.819466   -3.518847 N.pl3        1 UNL1     -0.3170
     16 C         -4.121507   -5.758755   -2.68901 C.3        1 UNL1     0.1275
     17 N         -4.076864   -4.55559   -3.599024 N.2        1 UNL1     -0.2557
     18 C         -5.187517   -5.457031   -1.640065 C.3        1 UNL1     0.0016
     19 C         -5.51005   -6.740373   -0.891336 C.3        1 UNL1     0.0026
     20 N         -4.290526   -7.238921   -0.27066 N.3        1 UNL1     -0.3018
     21 C         -3.184789   -7.500381   -1.194432 C.3        1 UNL1     0.0026
     22 C         -2.874466   -6.196933   -1.932414 C.3        1 UNL1     0.0016
     23 C         -4.539782   -8.281203   0.705129 C.3        1 UNL1     0.0012
     24 C         -4.59047   -9.657141   0.0225 C.3        1 UNL1     -0.0339
     25 C         -3.264897   -10.417725   0.191094 C.3        1 UNL1     -0.0615
     26 C         -5.766304   -10.45876   0.553162 C.3        1 UNL1     -0.0615
     27 C         -6.741297   -3.945589   -7.757265 C.ar        1 UNL1     0.1347
     28 C         -6.292298   -2.665857   -8.030645 C.ar        1 UNL1     0.0342
     29 C         -5.270329   -2.208716   -7.171712 C.ar        1 UNL1     0.1435
     30 C         -4.785501   -2.964247   -6.10338 C.ar        1 UNL1     0.0774
     31 O         -4.806451   -0.941775   -7.240148 O.3        1 UNL1     -0.4436
     32 C         -4.172588   -0.718636   -5.971567 C.3        1 UNL1     0.3143
     33 C         -3.821197   -2.099535   -5.455955 C.2        1 UNL1     0.2504
     34 C         -6.902631   -1.709186   -9.016736 C.3        1 UNL1     -0.0327
     35 O         -2.935858   -0.041355   -6.226599 O.2        1 UNL1     -0.4528
     36 C         -2.275392   2.106299   -3.167277 C.3        1 UNL1     0.0854
     37 C         -2.148215   1.674745   -1.655619 C.3        1 UNL1     0.0236
     38 C         -0.78842   2.126973   -0.935764 C.3        1 UNL1     0.1131
     39 C         0.603452   1.813242   -1.618799 C.3        1 UNL1     0.0200
     40 C         0.889396   0.3211   -2.307411 C.3        1 UNL1     0.0661
     41 C         0.612082   -1.182212   -1.572046 C.3        1 UNL1     0.0091
     42 C         0.116136   -2.790557   -2.301886 C.3        1 UNL1     0.0661
     43 C         -6.903743   -6.009781   -6.350007 C.2        1 UNL1     0.2131
     44 O         -7.992554   -6.365552   -6.76311 O.2        1 UNL1     -0.2851
     45 O         -7.685953   -4.528692   -8.599319 O.3        1 UNL1     -0.5056
     46 O         -2.931524   -2.417293   -4.698746 O.2        1 UNL1     -0.2836
     47 C         1.298257   -3.946757   -4.395593 C.3        1 UNL1     -0.0566
     48 O         1.147018   -3.568592   -1.573148 O.3        1 UNL1     -0.3909
     49 C         -0.242872   -0.973478   -0.342014 C.3        1 UNL1     -0.0577
     50 O         0.441166   0.293435   -3.647578 O.3        1 UNL1     -0.3910
     51 O         -1.121914   2.675072   -3.744698 O.3        1 UNL1     -0.3753
     52 C         -2.804651   0.280386   -1.391414 C.3        1 UNL1     -0.0564
     53 O         -0.837166   2.021476   0.560505 O.3        1 UNL1     -0.4608
     54 C         0.202101   1.632165   1.364426 C.2        1 UNL1     0.3042
     55 O         0.735264   0.524315   1.411807 O.2        1 UNL1     -0.2512
     56 C         0.74602   2.738875   2.222364 C.3        1 UNL1     0.0332
     57 C         1.038356   3.111384   -2.445756 C.3        1 UNL1     -0.0567
     58 C         -5.247815   -0.100009   -5.048139 C.3        1 UNL1     0.0210
     59 C         -1.33463   3.316186   -5.001516 C.3        1 UNL1     0.0372
     60 C         -2.733337   1.0331   -4.091231 C.2        1 UNL1     -0.0208
     61 C         -2.28109   0.677087   -5.29434 C.2        1 UNL1     0.0882
     62 H         -0.724384   -3.263949   -4.231226 H        1 UNL1     0.0365
     63 H         -1.763919   -4.767481   -5.141713 H        1 UNL1     0.0576
     64 H         -0.922004   -7.522983   -4.048478 H        1 UNL1     0.0615
     65 H         -3.115935   -6.621244   -6.081061 H        1 UNL1     0.0622
     66 H         -3.069198   2.866497   -3.171452 H        1 UNL1     0.0645
     67 H         -2.891779   2.302278   -1.134203 H        1 UNL1     0.0362
     68 H         -0.903159   3.220014   -0.995911 H        1 UNL1     0.0741
     69 H         1.381726   1.88212   -0.870499 H        1 UNL1     0.0359
     70 H         1.992929   0.355439   -2.385488 H        1 UNL1     0.0600
     71 H         1.606201   -1.361368   -1.117526 H        1 UNL1     0.0348
     72 H         0.518214   -2.191907   -3.132107 H        1 UNL1     0.0602
     73 H         -3.626922   0.60331   -3.711714 H        1 UNL1     0.0628
     74 H         -1.344159   1.026782   -5.729209 H        1 UNL1     0.1022
     75 H         -3.055608   -10.744917   -5.940153 H        1 UNL1     0.0279
     76 H         -3.259158   -10.388802   -4.271307 H        1 UNL1     0.0279
     77 H         -4.666224   -10.501438   -5.403903 H        1 UNL1     0.0279
     78 H         -5.853267   -8.587628   -4.606918 H        1 UNL1     0.1553
     79 H         -4.744864   -7.759715   -3.188388 H        1 UNL1     0.1484
     80 H         -4.812253   -4.681159   -0.961856 H        1 UNL1     0.0317
     81 H         -6.092805   -5.05423   -2.106815 H        1 UNL1     0.0317
     82 H         -5.955046   -7.497363   -1.553799 H        1 UNL1     0.0428
     83 H         -6.273364   -6.50294   -0.149698 H        1 UNL1     0.0428
     84 H         -2.25709   -7.79715   -0.69532 H        1 UNL1     0.0428
     85 H         -3.405178   -8.339461   -1.86874 H        1 UNL1     0.0428
     86 H         -1.981175   -6.389544   -2.497144 H        1 UNL1     0.0317
     87 H         -2.561327   -5.426702   -1.217023 H        1 UNL1     0.0317
     88 H         -3.711896   -8.279072   1.426166 H        1 UNL1     0.0429
     89 H         -5.459709   -8.085831   1.271113 H        1 UNL1     0.0429
     90 H         -4.780528   -9.519923   -1.048603 H        1 UNL1     0.0308
     91 H         -3.324822   -11.421678   -0.239706 H        1 UNL1     0.0233
     92 H         -2.444196   -9.873052   -0.281547 H        1 UNL1     0.0233
     93 H         -2.984443   -10.539719   1.244327 H        1 UNL1     0.0233
     94 H         -5.496414   -11.517347   0.633091 H        1 UNL1     0.0233
     95 H         -6.040217   -10.104436   1.550854 H        1 UNL1     0.0233
     96 H         -6.63671   -10.372663   -0.103305 H        1 UNL1     0.0233
     97 H         -6.734165   -2.019814   -10.043556 H        1 UNL1     0.0280
     98 H         -7.991682   -1.63375   -8.900405 H        1 UNL1     0.0280
     99 H         -6.461042   -0.708266   -8.881629 H        1 UNL1     0.0280
     100 H         -8.579807   -4.394535   -8.337307 H        1 UNL1     0.2922
     101 H         1.755514   -2.974359   -4.213894 H        1 UNL1     0.0236
     102 H         1.27076   -4.193989   -5.456302 H        1 UNL1     0.0236
     103 H         2.001708   -4.673364   -3.955832 H        1 UNL1     0.0236
     104 H         1.582822   -2.962589   -0.94243 H        1 UNL1     0.2098
     105 H         -1.313398   -1.003034   -0.528864 H        1 UNL1     0.0234
     106 H         0.010945   -1.613457   0.50293 H        1 UNL1     0.0234
     107 H         0.0   0.0   0.0 H        1 UNL1     0.0234
     108 H         1.228242   0.179564   -4.214423 H        1 UNL1     0.2098
     109 H         -3.879822   0.276994   -1.618803 H        1 UNL1     0.0234
     110 H         -2.313291   -0.535953   -1.931692 H        1 UNL1     0.0234
     111 H         -2.723128   -0.01187   -0.336006 H        1 UNL1     0.0234
     112 H         1.484865   3.317299   1.659443 H        1 UNL1     0.0342
     113 H         -0.04256   3.382929   2.608602 H        1 UNL1     0.0342
     114 H         1.257408   2.286102   3.082971 H        1 UNL1     0.0342
     115 H         2.029065   3.476374   -2.141674 H        1 UNL1     0.0234
     116 H         1.061151   2.961909   -3.527045 H        1 UNL1     0.0234
     117 H         0.412187   3.995932   -2.23736 H        1 UNL1     0.0234
     118 H         -5.16058   -0.46298   -4.009078 H        1 UNL1     0.0309
     119 H         -5.235343   0.994544   -5.047392 H        1 UNL1     0.0309
     120 H         -6.264689   -0.39148   -5.332951 H        1 UNL1     0.0309
     121 H         -1.606504   4.352215   -4.801306 H        1 UNL1     0.0524
     122 H         -0.425311   3.326197   -5.625275 H        1 UNL1     0.0524
     123 H         -2.13113   2.81841   -5.54732 H        1 UNL1     0.0524
@<TRIPOS>BOND
     1     1     2    1
     2     1    42    1
     3     2     3    2
     4     3     4    1
     5     4     5    2
     6     5     7    1
     7     6    75    1
     8     6    76    1
     9     6    77    1
    10     7     9   am
    11     9    10    1
    12    10    11    2
    13    10    43    1
    14    11    14    1
    15    11    15    1
    16    12    13   ar
    17    12    27   ar
    18    12    43    1
    19    13    14    1
    20    13    30   ar
    21    14    17    2
    22    15    16    1
    23    16    17    1
    24    16    18    1
    25    16    22    1
    26    18    19    1
    27    19    20    1
    28    20    21    1
    29    21    22    1
    30    23    24    1
    31    23    88    1
    32    23    89    1
    33    24    25    1
    34    24    26    1
    35    24    90    1
    36    25    91    1
    37    25    92    1
    38    25    93    1
    39    26    94    1
    40    26    95    1
    41    26    96    1
    42    27    28   ar
    43    28    29   ar
    44    29    30   ar
    45    29    31    1
    46    30    33    1
    47    31    32    1
    48    32    33    1
    49    32    35    1
    50    34    97    1
    51    34    98    1
    52    34    99    1
    53    35    61    1
    54    36    37    1
    55    36    60    1
    56    37    38    1
    57    38    39    1
    58    39    40    1
    59    40    41    1
    60    41    42    1
    61    45   100    1
    62    47   101    1
    63    47   102    1
    64    47   103    1
    65    48   104    1
    66    49   105    1
    67    49   106    1
    68    49   107    1
    69    50   108    1
    70    51    59    1
    71    52   109    1
    72    52   110    1
    73    52   111    1
    74    53    54    1
    75    54    55    2
    76    54    56    1
    77    56   112    1
    78    56   113    1
    79    56   114    1
    80    57   115    1
    81    57   116    1
    82    57   117    1
    83    58   118    1
    84    58   119    1
    85    58   120    1
    86    59   121    1
    87    59   122    1
    88    59   123    1
    89    60    61    2
    90     1    47    1
    91     1    62    1
    92     2    63    1
    93     3    64    1
    94     4    65    1
    95     5     6    1
    96     7     8    2
    97     9    78    1
    98    15    79    1
    99    18    80    1
   100    18    81    1
   101    19    82    1
   102    19    83    1
   103    20    23    1
   104    21    84    1
   105    21    85    1
   106    22    86    1
   107    22    87    1
   108    27    45    1
   109    28    34    1
   110    32    58    1
   111    33    46    2
   112    36    51    1
   113    36    66    1
   114    37    52    1
   115    37    67    1
   116    38    53    1
   117    38    68    1
   118    42    48    1
   119    42    72    1
   120    43    44    2
   121    60    73    1
   122    61    74    1
   123    39    69    1
   124    39    57    1
   125    40    70    1
   126    40    50    1
   127    41    71    1
   128    41    49    1
