@<TRIPOS>MOLECULE
*****
 123 128 0 0 0
SMALL
GASTEIGER

@<TRIPOS>ATOM
     1 C         5.15999   1.781803   0.44604 C.3        1 UNL1     0.0009
     2 C         6.58974   2.581627   -0.421793 C.2        1 UNL1     -0.0787
     3 C         7.869832   2.479395   -1.090343 C.2        1 UNL1     -0.0649
     4 C         8.738527   3.70689   -1.86815 C.2        1 UNL1     -0.0542
     5 C         9.753893   3.989878   -2.814738 C.2        1 UNL1     0.0115
     6 C         10.882268   3.356576   -3.674401 C.3        1 UNL1     -0.0348
     7 C         9.839757   5.463931   -3.444646 C.2        1 UNL1     0.2441
     8 O         10.660794   6.295446   -3.082699 O.2        1 UNL1     -0.2702
     9 N         9.084549   5.648866   -4.615805 N.am        1 UNL1     -0.2772
     10 C         7.800986   6.03405   -4.303683 C.2        1 UNL1     0.1049
     11 C         6.961063   5.063143   -3.993694 C.2        1 UNL1     0.0801
     12 C         6.499358   7.656103   -2.913704 C.ar        1 UNL1     0.0753
     13 C         5.747471   6.531575   -2.446038 C.ar        1 UNL1     0.0305
     14 C         5.868746   5.216544   -3.071367 C.2        1 UNL1     0.0924
     15 N         7.08979   3.732465   -4.132445 N.pl3        1 UNL1     -0.3170
     16 C         5.824015   3.132001   -3.804558 C.3        1 UNL1     0.1275
     17 N         5.186166   4.099269   -2.837468 N.2        1 UNL1     -0.2557
     18 C         4.966608   3.167097   -5.066035 C.3        1 UNL1     0.0016
     19 C         5.721075   2.469198   -6.186439 C.3        1 UNL1     0.0026
     20 N         5.999412   1.098647   -5.780055 N.3        1 UNL1     -0.3018
     21 C         6.767754   0.961417   -4.541028 C.3        1 UNL1     0.0026
     22 C         5.989364   1.665507   -3.428256 C.3        1 UNL1     0.0016
     23 C         6.444252   0.264079   -6.878352 C.3        1 UNL1     0.0012
     24 C         5.28675   -0.006426   -7.852402 C.3        1 UNL1     -0.0339
     25 C         5.373106   0.897359   -9.093278 C.3        1 UNL1     -0.0615
     26 C         5.258775   -1.476633   -8.23252 C.3        1 UNL1     -0.0615
     27 C         6.290188   8.931046   -2.393236 C.ar        1 UNL1     0.1347
     28 C         5.333051   9.210814   -1.434243 C.ar        1 UNL1     0.0342
     29 C         4.638735   8.08024   -0.95373 C.ar        1 UNL1     0.1435
     30 C         4.862875   6.791572   -1.439854 C.ar        1 UNL1     0.0774
     31 O         3.600087   8.201978   -0.098513 O.3        1 UNL1     -0.4436
     32 C         2.884107   6.963531   -0.218907 C.3        1 UNL1     0.3143
     33 C         3.900549   5.967257   -0.738998 C.2        1 UNL1     0.2504
     34 C         4.880881   10.581411   -1.013402 C.3        1 UNL1     -0.0327
     35 O         2.530124   6.545678   1.105233 O.2        1 UNL1     -0.4528
     36 C         -0.704544   4.591504   0.749969 C.3        1 UNL1     0.0854
     37 C         -1.006584   3.315551   -0.126524 C.3        1 UNL1     0.0236
     38 C         -1.598148   2.064022   0.683088 C.3        1 UNL1     0.1131
     39 C         -0.865331   1.557095   1.990097 C.3        1 UNL1     0.0200
     40 C         0.796698   1.420432   2.027766 C.3        1 UNL1     0.0661
     41 C         1.755928   0.63818   0.86778 C.3        1 UNL1     0.0091
     42 C         3.459757   1.000319   0.292257 C.3        1 UNL1     0.0661
     43 C         7.446617   7.435604   -4.03457 C.2        1 UNL1     0.2131
     44 O         7.839562   8.324306   -4.768423 O.2        1 UNL1     -0.2851
     45 O         7.095707   9.962864   -2.870654 O.3        1 UNL1     -0.5056
     46 O         3.923001   4.766008   -0.589495 O.2        1 UNL1     -0.2836
     47 C         5.563376   1.376834   1.88939 C.3        1 UNL1     -0.0566
     48 O         3.915646   -0.407098   0.394516 O.3        1 UNL1     -0.3909
     49 C         0.918708   0.382104   -0.365501 C.3        1 UNL1     -0.0577
     50 O         1.39213   2.647243   2.399412 O.3        1 UNL1     -0.3910
     51 O         -0.822956   4.423001   2.144608 O.3        1 UNL1     -0.3753
     52 C         0.03474   3.142244   -1.280023 C.3        1 UNL1     -0.0564
     53 O         -2.198601   1.008125   -0.19831 O.3        1 UNL1     -0.4608
     54 C         -2.394112   -0.302461   0.151074 C.2        1 UNL1     0.3042
     55 O         -1.807805   -1.289085   -0.292385 O.2        1 UNL1     -0.2512
     56 C         -3.41077   -0.489023   1.241173 C.3        1 UNL1     0.0332
     57 C         -1.585406   2.242159   3.243236 C.3        1 UNL1     -0.0567
     58 C         1.804022   7.186314   -1.303027 C.3        1 UNL1     0.0210
     59 C         -1.139527   5.611874   2.867262 C.3        1 UNL1     0.0372
     60 C         0.620499   5.223468   0.504933 C.2        1 UNL1     -0.0208
     61 C         1.534196   5.676757   1.364253 C.2        1 UNL1     0.0882
     62 H         4.679455   2.764855   0.519573 H        1 UNL1     0.0365
     63 H         6.318588   3.635615   -0.332043 H        1 UNL1     0.0576
     64 H         8.331559   1.511481   -1.297846 H        1 UNL1     0.0615
     65 H         8.248057   4.62518   -1.533986 H        1 UNL1     0.0622
     66 H         -1.453967   5.329396   0.43071 H        1 UNL1     0.0645
     67 H         -1.875741   3.611032   -0.739562 H        1 UNL1     0.0362
     68 H         -2.546188   2.50166   1.031248 H        1 UNL1     0.0741
     69 H         -1.19113   0.547551   2.202429 H        1 UNL1     0.0359
     70 H         0.91477   0.77453   2.918794 H        1 UNL1     0.0600
     71 H         1.806066   -0.375953   1.310474 H        1 UNL1     0.0348
     72 H         3.35477   1.503263   1.264543 H        1 UNL1     0.0602
     73 H         0.733879   5.405056   -0.53498 H        1 UNL1     0.0628
     74 H         1.521345   5.482774   2.437306 H        1 UNL1     0.1022
     75 H         10.881421   2.245222   -3.565201 H        1 UNL1     0.0279
     76 H         10.802418   3.486201   -4.751383 H        1 UNL1     0.0279
     77 H         11.88827   3.609572   -3.308815 H        1 UNL1     0.0279
     78 H         9.025111   4.770516   -5.126731 H        1 UNL1     0.1553
     79 H         7.755085   3.298159   -4.745384 H        1 UNL1     0.1484
     80 H         4.008458   2.674516   -4.860904 H        1 UNL1     0.0317
     81 H         4.7339   4.19835   -5.35242 H        1 UNL1     0.0317
     82 H         6.648222   3.001148   -6.445939 H        1 UNL1     0.0428
     83 H         5.092622   2.507289   -7.076746 H        1 UNL1     0.0428
     84 H         6.894336   -0.075962   -4.216014 H        1 UNL1     0.0428
     85 H         7.795635   1.332867   -4.654173 H        1 UNL1     0.0428
     86 H         6.510121   1.431941   -2.518175 H        1 UNL1     0.0317
     87 H         5.01275   1.185051   -3.292304 H        1 UNL1     0.0317
     88 H         7.235798   0.801486   -7.416817 H        1 UNL1     0.0429
     89 H         6.88276   -0.673935   -6.514192 H        1 UNL1     0.0429
     90 H         4.335637   0.189456   -7.343258 H        1 UNL1     0.0308
     91 H         6.327279   0.76912   -9.613095 H        1 UNL1     0.0233
     92 H         4.555789   0.682119   -9.785575 H        1 UNL1     0.0233
     93 H         5.288448   1.961468   -8.841603 H        1 UNL1     0.0233
     94 H         4.601611   -1.631295   -9.095104 H        1 UNL1     0.0233
     95 H         6.262777   -1.810101   -8.50954 H        1 UNL1     0.0233
     96 H         4.896576   -2.095467   -7.406793 H        1 UNL1     0.0233
     97 H         4.051296   10.539867   -0.313907 H        1 UNL1     0.0280
     98 H         5.675985   11.141146   -0.503734 H        1 UNL1     0.0280
     99 H         4.55743   11.151603   -1.899604 H        1 UNL1     0.0280
     100 H         6.624665   10.719254   -3.173336 H        1 UNL1     0.2922
     101 H         4.681027   1.05169   2.440206 H        1 UNL1     0.0236
     102 H         6.10995   2.157898   2.416818 H        1 UNL1     0.0236
     103 H         6.238038   0.504551   1.901519 H        1 UNL1     0.0236
     104 H         4.250914   -0.543325   1.302265 H        1 UNL1     0.2098
     105 H         0.699619   1.270787   -0.952062 H        1 UNL1     0.0234
     106 H         1.289795   -0.414257   -1.010507 H        1 UNL1     0.0234
     107 H         0.0   -0.0   0.0 H        1 UNL1     0.0234
     108 H         1.241906   3.276107   1.667476 H        1 UNL1     0.2098
     109 H         1.062804   3.052195   -0.902284 H        1 UNL1     0.0234
     110 H         -0.189151   2.296001   -1.938422 H        1 UNL1     0.0234
     111 H         0.040507   4.009438   -1.953734 H        1 UNL1     0.0234
     112 H         -3.503271   -1.551513   1.485927 H        1 UNL1     0.0342
     113 H         -3.17284   0.096867   2.12772 H        1 UNL1     0.0342
     114 H         -4.383897   -0.144012   0.865465 H        1 UNL1     0.0342
     115 H         -2.672251   2.081807   3.227637 H        1 UNL1     0.0234
     116 H         -1.216348   1.89649   4.210892 H        1 UNL1     0.0234
     117 H         -1.532459   3.34444   3.232545 H        1 UNL1     0.0234
     118 H         0.900094   7.670927   -0.894284 H        1 UNL1     0.0309
     119 H         2.166262   7.766716   -2.157496 H        1 UNL1     0.0309
     120 H         1.421977   6.245987   -1.715255 H        1 UNL1     0.0309
     121 H         -0.762887   5.490705   3.882553 H        1 UNL1     0.0524
     122 H         -0.654661   6.504254   2.437609 H        1 UNL1     0.0524
     123 H         -2.214532   5.767534   2.882343 H        1 UNL1     0.0524
@<TRIPOS>BOND
     1     1     2    1
     2     1    42    1
     3     2     3    2
     4     3     4    1
     5     4     5    2
     6     5     7    1
     7     6    75    1
     8     6    76    1
     9     6    77    1
    10     7     9   am
    11     9    10    1
    12    10    11    2
    13    10    43    1
    14    11    14    1
    15    11    15    1
    16    12    13   ar
    17    12    27   ar
    18    12    43    1
    19    13    14    1
    20    13    30   ar
    21    14    17    2
    22    15    16    1
    23    16    17    1
    24    16    18    1
    25    16    22    1
    26    18    19    1
    27    19    20    1
    28    20    21    1
    29    21    22    1
    30    23    24    1
    31    23    88    1
    32    23    89    1
    33    24    25    1
    34    24    26    1
    35    24    90    1
    36    25    91    1
    37    25    92    1
    38    25    93    1
    39    26    94    1
    40    26    95    1
    41    26    96    1
    42    27    28   ar
    43    28    29   ar
    44    29    30   ar
    45    29    31    1
    46    30    33    1
    47    31    32    1
    48    32    33    1
    49    32    35    1
    50    34    97    1
    51    34    98    1
    52    34    99    1
    53    35    61    1
    54    36    37    1
    55    36    60    1
    56    37    38    1
    57    38    39    1
    58    39    40    1
    59    40    41    1
    60    41    42    1
    61    45   100    1
    62    47   101    1
    63    47   102    1
    64    47   103    1
    65    48   104    1
    66    49   105    1
    67    49   106    1
    68    49   107    1
    69    50   108    1
    70    51    59    1
    71    52   109    1
    72    52   110    1
    73    52   111    1
    74    53    54    1
    75    54    55    2
    76    54    56    1
    77    56   112    1
    78    56   113    1
    79    56   114    1
    80    57   115    1
    81    57   116    1
    82    57   117    1
    83    58   118    1
    84    58   119    1
    85    58   120    1
    86    59   121    1
    87    59   122    1
    88    59   123    1
    89    60    61    2
    90     1    47    1
    91     1    62    1
    92     2    63    1
    93     3    64    1
    94     4    65    1
    95     5     6    1
    96     7     8    2
    97     9    78    1
    98    15    79    1
    99    18    80    1
   100    18    81    1
   101    19    82    1
   102    19    83    1
   103    20    23    1
   104    21    84    1
   105    21    85    1
   106    22    86    1
   107    22    87    1
   108    27    45    1
   109    28    34    1
   110    32    58    1
   111    33    46    2
   112    36    51    1
   113    36    66    1
   114    37    52    1
   115    37    67    1
   116    38    53    1
   117    38    68    1
   118    42    48    1
   119    42    72    1
   120    43    44    2
   121    60    73    1
   122    61    74    1
   123    39    69    1
   124    39    57    1
   125    40    70    1
   126    40    50    1
   127    41    71    1
   128    41    49    1
