@<TRIPOS>MOLECULE
*****
 123 128 0 0 0
SMALL
GASTEIGER

@<TRIPOS>ATOM
     1 C         1.024604   4.187965   -3.343906 C.3        1 UNL1     0.0009
     2 C         0.465326   5.073416   -4.873685 C.2        1 UNL1     -0.0787
     3 C         0.649245   5.405826   -6.270725 C.2        1 UNL1     -0.0649
     4 C         -0.391985   6.282419   -7.277594 C.2        1 UNL1     -0.0542
     5 C         -0.746553   6.561029   -8.620626 C.2        1 UNL1     0.0115
     6 C         -0.31214   6.371868   -10.100095 C.3        1 UNL1     -0.0348
     7 C         -2.180112   7.215833   -8.9258 C.2        1 UNL1     0.2441
     8 O         -2.328655   8.402956   -9.181143 O.2        1 UNL1     -0.2702
     9 N         -3.217176   6.290696   -9.137389 N.am        1 UNL1     -0.2772
     10 C         -3.808788   5.950918   -7.942454 C.2        1 UNL1     0.1049
     11 C         -3.202706   5.011546   -7.23927 C.2        1 UNL1     0.0801
     12 C         -4.780958   6.93708   -5.859259 C.ar        1 UNL1     0.0753
     13 C         -3.94155   6.033145   -5.133378 C.ar        1 UNL1     0.0305
     14 C         -3.223112   4.951152   -5.802847 C.2        1 UNL1     0.0924
     15 N         -2.210674   4.175017   -7.589438 N.pl3        1 UNL1     -0.3170
     16 C         -2.032353   3.231818   -6.517602 C.3        1 UNL1     0.1275
     17 N         -2.488675   3.97136   -5.283677 N.2        1 UNL1     -0.2557
     18 C         -3.039516   2.106328   -6.733468 C.3        1 UNL1     0.0016
     19 C         -2.829117   1.525224   -8.122582 C.3        1 UNL1     0.0026
     20 N         -1.462538   1.031461   -8.221015 N.3        1 UNL1     -0.3018
     21 C         -0.421174   2.029319   -7.967623 C.3        1 UNL1     0.0026
     22 C         -0.648997   2.59653   -6.565388 C.3        1 UNL1     0.0016
     23 C         -1.247261   0.196108   -9.385698 C.3        1 UNL1     0.0012
     24 C         -1.427914   -1.286958   -9.025647 C.3        1 UNL1     -0.0339
     25 C         -2.800256   -1.812366   -9.478063 C.3        1 UNL1     -0.0615
     26 C         -0.29344   -2.107646   -9.614051 C.3        1 UNL1     -0.0615
     27 C         -5.556161   7.88875   -5.200849 C.ar        1 UNL1     0.1347
     28 C         -5.60515   8.005334   -3.823148 C.ar        1 UNL1     0.0342
     29 C         -4.733524   7.137574   -3.131465 C.ar        1 UNL1     0.1435
     30 C         -3.924137   6.203637   -3.779441 C.ar        1 UNL1     0.0774
     31 O         -4.746042   7.053683   -1.783202 O.3        1 UNL1     -0.4436
     32 C         -4.119337   5.795313   -1.492309 C.3        1 UNL1     0.3143
     33 C         -3.266487   5.487461   -2.706429 C.2        1 UNL1     0.2504
     34 C         -6.594227   8.825141   -3.042289 C.3        1 UNL1     -0.0327
     35 O         -3.222177   6.009652   -0.395763 O.2        1 UNL1     -0.4528
     36 C         -3.079853   2.718994   1.490875 C.3        1 UNL1     0.0854
     37 C         -2.677568   1.286778   0.966996 C.3        1 UNL1     0.0236
     38 C         -1.501123   0.572025   1.789704 C.3        1 UNL1     0.1131
     39 C         -0.15315   1.35112   2.06944 C.3        1 UNL1     0.0200
     40 C         0.570595   2.247462   0.863122 C.3        1 UNL1     0.0661
     41 C         0.898353   1.711376   -0.712567 C.3        1 UNL1     0.0091
     42 C         0.928722   2.630309   -2.300031 C.3        1 UNL1     0.0661
     43 C         -4.867073   6.768658   -7.331155 C.2        1 UNL1     0.2131
     44 O         -5.796816   7.178482   -8.002243 O.2        1 UNL1     -0.2851
     45 O         -6.310402   8.760242   -5.983831 O.3        1 UNL1     -0.5056
     46 O         -2.258529   4.81971   -2.769548 O.2        1 UNL1     -0.2836
     47 C         2.248286   4.91082   -2.719355 C.3        1 UNL1     -0.0566
     48 O         2.225703   2.059284   -2.736936 O.3        1 UNL1     -0.3909
     49 C         0.136545   0.428425   -0.95991 C.3        1 UNL1     -0.0577
     50 O         0.043057   3.55825   0.827598 O.3        1 UNL1     -0.3910
     51 O         -2.251313   3.263532   2.493088 O.3        1 UNL1     -0.3753
     52 C         -2.783302   1.185805   -0.589787 C.3        1 UNL1     -0.0564
     53 O         -1.377587   -0.896812   1.507604 O.3        1 UNL1     -0.4608
     54 C         -0.200993   -1.594598   1.42604 C.2        1 UNL1     0.3042
     55 O         0.864636   -1.208552   0.947249 O.2        1 UNL1     -0.2512
     56 C         -0.264278   -2.956194   2.057519 C.3        1 UNL1     0.0332
     57 C         -0.270688   2.012532   3.520954 C.3        1 UNL1     -0.0567
     58 C         -5.256169   4.750693   -1.403358 C.3        1 UNL1     0.0210
     59 C         -2.833741   3.30541   3.794967 C.3        1 UNL1     0.0372
     60 C         -3.216861   3.759152   0.435196 C.2        1 UNL1     -0.0208
     61 C         -2.777574   5.017927   0.399724 C.2        1 UNL1     0.0882
     62 H         0.137402   4.567657   -2.822928 H        1 UNL1     0.0365
     63 H         -0.392131   5.627564   -4.486183 H        1 UNL1     0.0576
     64 H         1.446782   4.955674   -6.866044 H        1 UNL1     0.0615
     65 H         -1.094463   6.749949   -6.582308 H        1 UNL1     0.0622
     66 H         -4.085153   2.585558   1.914683 H        1 UNL1     0.0645
     67 H         -3.543404   0.653277   1.226929 H        1 UNL1     0.0362
     68 H         -1.992821   0.478366   2.770001 H        1 UNL1     0.0741
     69 H         0.615859   0.634922   2.326528 H        1 UNL1     0.0359
     70 H         1.58213   2.368038   1.295925 H        1 UNL1     0.0600
     71 H         1.928948   1.328976   -0.57618 H        1 UNL1     0.0348
     72 H         1.022942   3.38837   -1.508968 H        1 UNL1     0.0602
     73 H         -3.868481   3.40295   -0.323593 H        1 UNL1     0.0628
     74 H         -2.062592   5.441661   1.10576 H        1 UNL1     0.1022
     75 H         -1.153593   5.956922   -10.705744 H        1 UNL1     0.0279
     76 H         -0.051659   7.274402   -10.648412 H        1 UNL1     0.0279
     77 H         0.450098   5.588497   -10.222663 H        1 UNL1     0.0279
     78 H         -2.837545   5.438509   -9.544494 H        1 UNL1     0.1553
     79 H         -1.964326   3.970335   -8.540412 H        1 UNL1     0.1484
     80 H         -2.898299   1.346134   -5.955696 H        1 UNL1     0.0317
     81 H         -4.065849   2.47437   -6.62937 H        1 UNL1     0.0317
     82 H         -3.0406   2.264242   -8.909373 H        1 UNL1     0.0428
     83 H         -3.558549   0.72578   -8.256253 H        1 UNL1     0.0428
     84 H         0.592161   1.615842   -7.968965 H        1 UNL1     0.0428
     85 H         -0.395509   2.800952   -8.749442 H        1 UNL1     0.0428
     86 H         0.201903   3.220437   -6.363654 H        1 UNL1     0.0317
     87 H         -0.560537   1.797597   -5.819079 H        1 UNL1     0.0317
     88 H         -1.995603   0.465709   -10.142398 H        1 UNL1     0.0429
     89 H         -0.260344   0.37831   -9.830187 H        1 UNL1     0.0429
     90 H         -1.350095   -1.404658   -7.938309 H        1 UNL1     0.0308
     91 H         -2.901583   -2.883369   -9.278596 H        1 UNL1     0.0233
     92 H         -3.605638   -1.275435   -8.971434 H        1 UNL1     0.0233
     93 H         -2.967716   -1.671692   -10.552774 H        1 UNL1     0.0233
     94 H         -0.666789   -3.080351   -9.952122 H        1 UNL1     0.0233
     95 H         0.13215   -1.590832   -10.478769 H        1 UNL1     0.0233
     96 H         0.498664   -2.277832   -8.879491 H        1 UNL1     0.0233
     97 H         -7.168539   8.218544   -2.348433 H        1 UNL1     0.0280
     98 H         -6.10372   9.595563   -2.4331 H        1 UNL1     0.0280
     99 H         -7.296726   9.315223   -3.736126 H        1 UNL1     0.0280
     100 H         -5.833262   9.170452   -6.683608 H        1 UNL1     0.2922
     101 H         2.420052   4.537547   -1.709989 H        1 UNL1     0.0236
     102 H         2.16369   5.996717   -2.744961 H        1 UNL1     0.0236
     103 H         3.182034   4.688813   -3.262513 H        1 UNL1     0.0236
     104 H         2.799156   1.992525   -1.948478 H        1 UNL1     0.2098
     105 H         -0.845525   0.567893   -1.404768 H        1 UNL1     0.0234
     106 H         0.693247   -0.33393   -1.504726 H        1 UNL1     0.0234
     107 H         0.0   -0.0   0.0 H        1 UNL1     0.0234
     108 H         0.32139   3.960165   -0.017839 H        1 UNL1     0.2098
     109 H         -3.805531   1.367573   -0.949954 H        1 UNL1     0.0234
     110 H         -2.087039   1.850456   -1.112474 H        1 UNL1     0.0234
     111 H         -2.515257   0.18345   -0.949484 H        1 UNL1     0.0234
     112 H         0.699473   -3.462588   1.947546 H        1 UNL1     0.0342
     113 H         -0.563761   -2.909046   3.10343 H        1 UNL1     0.0342
     114 H         -1.018881   -3.548219   1.521566 H        1 UNL1     0.0342
     115 H         0.701522   2.05314   4.031196 H        1 UNL1     0.0234
     116 H         -0.681386   3.02414   3.515918 H        1 UNL1     0.0234
     117 H         -0.859944   1.409285   4.232862 H        1 UNL1     0.0234
     118 H         -5.408149   4.390234   -0.370896 H        1 UNL1     0.0309
     119 H         -6.208753   5.117701   -1.798442 H        1 UNL1     0.0309
     120 H         -5.029809   3.834669   -1.959926 H        1 UNL1     0.0309
     121 H         -2.114273   2.876564   4.49197 H        1 UNL1     0.0524
     122 H         -3.04343   4.336009   4.126529 H        1 UNL1     0.0524
     123 H         -3.757917   2.734699   3.811795 H        1 UNL1     0.0524
@<TRIPOS>BOND
     1     1     2    1
     2     1    42    1
     3     2     3    2
     4     3     4    1
     5     4     5    2
     6     5     7    1
     7     6    75    1
     8     6    76    1
     9     6    77    1
    10     7     9   am
    11     9    10    1
    12    10    11    2
    13    10    43    1
    14    11    14    1
    15    11    15    1
    16    12    13   ar
    17    12    27   ar
    18    12    43    1
    19    13    14    1
    20    13    30   ar
    21    14    17    2
    22    15    16    1
    23    16    17    1
    24    16    18    1
    25    16    22    1
    26    18    19    1
    27    19    20    1
    28    20    21    1
    29    21    22    1
    30    23    24    1
    31    23    88    1
    32    23    89    1
    33    24    25    1
    34    24    26    1
    35    24    90    1
    36    25    91    1
    37    25    92    1
    38    25    93    1
    39    26    94    1
    40    26    95    1
    41    26    96    1
    42    27    28   ar
    43    28    29   ar
    44    29    30   ar
    45    29    31    1
    46    30    33    1
    47    31    32    1
    48    32    33    1
    49    32    35    1
    50    34    97    1
    51    34    98    1
    52    34    99    1
    53    35    61    1
    54    36    37    1
    55    36    60    1
    56    37    38    1
    57    38    39    1
    58    39    40    1
    59    40    41    1
    60    41    42    1
    61    45   100    1
    62    47   101    1
    63    47   102    1
    64    47   103    1
    65    48   104    1
    66    49   105    1
    67    49   106    1
    68    49   107    1
    69    50   108    1
    70    51    59    1
    71    52   109    1
    72    52   110    1
    73    52   111    1
    74    53    54    1
    75    54    55    2
    76    54    56    1
    77    56   112    1
    78    56   113    1
    79    56   114    1
    80    57   115    1
    81    57   116    1
    82    57   117    1
    83    58   118    1
    84    58   119    1
    85    58   120    1
    86    59   121    1
    87    59   122    1
    88    59   123    1
    89    60    61    2
    90     1    47    1
    91     1    62    1
    92     2    63    1
    93     3    64    1
    94     4    65    1
    95     5     6    1
    96     7     8    2
    97     9    78    1
    98    15    79    1
    99    18    80    1
   100    18    81    1
   101    19    82    1
   102    19    83    1
   103    20    23    1
   104    21    84    1
   105    21    85    1
   106    22    86    1
   107    22    87    1
   108    27    45    1
   109    28    34    1
   110    32    58    1
   111    33    46    2
   112    36    51    1
   113    36    66    1
   114    37    52    1
   115    37    67    1
   116    38    53    1
   117    38    68    1
   118    42    48    1
   119    42    72    1
   120    43    44    2
   121    60    73    1
   122    61    74    1
   123    39    69    1
   124    39    57    1
   125    40    70    1
   126    40    50    1
   127    41    71    1
   128    41    49    1
