@<TRIPOS>MOLECULE
*****
 123 128 0 0 0
SMALL
GASTEIGER

@<TRIPOS>ATOM
     1 C         -3.741412   -1.712241   -0.822044 C.3        1 UNL1     0.0009
     2 C         -5.040155   -2.21928   0.399927 C.2        1 UNL1     -0.0787
     3 C         -5.732143   -3.252432   1.141411 C.2        1 UNL1     -0.0649
     4 C         -6.904706   -3.059749   2.347366 C.2        1 UNL1     -0.0542
     5 C         -7.558722   -3.67976   3.440493 C.2        1 UNL1     0.0115
     6 C         -7.759144   -5.029041   4.18386 C.3        1 UNL1     -0.0348
     7 C         -8.346931   -2.762411   4.496044 C.2        1 UNL1     0.2441
     8 O         -9.564733   -2.646304   4.497756 O.2        1 UNL1     -0.2702
     9 N         -7.571273   -2.309637   5.577479 N.am        1 UNL1     -0.2772
     10 C         -6.94911   -1.124342   5.259187 C.2        1 UNL1     0.1049
     11 C         -5.822418   -1.223191   4.577265 C.2        1 UNL1     0.0801
     12 C         -7.377228   1.144756   4.297291 C.ar        1 UNL1     0.0753
     13 C         -6.266012   0.900234   3.42895 C.ar        1 UNL1     0.0305
     14 C         -5.372227   -0.237739   3.631967 C.2        1 UNL1     0.0924
     15 N         -5.062468   -2.30059   4.316087 N.pl3        1 UNL1     -0.3170
     16 C         -3.853796   -1.842912   3.683712 C.3        1 UNL1     0.1275
     17 N         -4.25031   -0.56012   2.994551 N.2        1 UNL1     -0.2557
     18 C         -2.885322   -1.445513   4.793592 C.3        1 UNL1     0.0016
     19 C         -2.696458   -2.633959   5.722847 C.3        1 UNL1     0.0026
     20 N         -2.176946   -3.753899   4.950274 N.3        1 UNL1     -0.3018
     21 C         -3.010768   -4.16993   3.82066 C.3        1 UNL1     0.0026
     22 C         -3.183619   -2.962241   2.897891 C.3        1 UNL1     0.0016
     23 C         -1.682214   -4.832135   5.782916 C.3        1 UNL1     0.0012
     24 C         -0.386574   -4.412026   6.494662 C.3        1 UNL1     -0.0339
     25 C         -0.539941   -4.471792   8.023375 C.3        1 UNL1     -0.0615
     26 C         0.772302   -5.268709   6.015203 C.3        1 UNL1     -0.0615
     27 C         -8.151891   2.2955   4.171573 C.ar        1 UNL1     0.1347
     28 C         -7.889247   3.288764   3.245023 C.ar        1 UNL1     0.0342
     29 C         -6.82043   3.003508   2.368995 C.ar        1 UNL1     0.1435
     30 C         -6.058132   1.838218   2.459679 C.ar        1 UNL1     0.0774
     31 O         -6.371394   3.919515   1.483387 O.3        1 UNL1     -0.4436
     32 C         -5.050146   3.475065   1.140399 C.3        1 UNL1     0.3143
     33 C         -5.041803   1.989558   1.439415 C.2        1 UNL1     0.2504
     34 C         -8.515064   4.655372   3.216114 C.3        1 UNL1     -0.0327
     35 O         -4.90831   3.615814   -0.278518 O.2        1 UNL1     -0.4528
     36 C         -1.224113   4.290888   -0.894192 C.3        1 UNL1     0.0854
     37 C         0.029142   3.423735   -0.488088 C.3        1 UNL1     0.0236
     38 C         1.003016   3.033912   -1.701081 C.3        1 UNL1     0.1131
     39 C         0.402711   2.382897   -3.011838 C.3        1 UNL1     0.0200
     40 C         -0.750069   1.181839   -2.906974 C.3        1 UNL1     0.0661
     41 C         -0.649312   -0.210771   -1.943597 C.3        1 UNL1     0.0091
     42 C         -1.964814   -1.173157   -1.101771 C.3        1 UNL1     0.0661
     43 C         -7.623026   0.175667   5.393973 C.2        1 UNL1     0.2131
     44 O         -8.249505   0.445413   6.402684 O.2        1 UNL1     -0.2851
     45 O         -9.243078   2.435185   5.026696 O.3        1 UNL1     -0.5056
     46 O         -4.364505   1.122869   0.933479 O.2        1 UNL1     -0.2836
     47 C         -4.199878   -2.047895   -2.266733 C.3        1 UNL1     -0.0566
     48 O         -1.467455   -2.486358   -1.57848 O.3        1 UNL1     -0.3909
     49 C         0.474738   -0.034546   -0.947127 C.3        1 UNL1     -0.0577
     50 O         -2.046495   1.737862   -2.818407 O.3        1 UNL1     -0.3910
     51 O         -1.428837   4.467527   -2.277781 O.3        1 UNL1     -0.3753
     52 C         -0.305708   2.421199   0.664191 C.3        1 UNL1     -0.0564
     53 O         2.342892   2.525177   -1.255832 O.3        1 UNL1     -0.4608
     54 C         3.052903   1.520785   -1.859993 C.2        1 UNL1     0.3042
     55 O         3.600751   0.562318   -1.316816 O.2        1 UNL1     -0.2512
     56 C         3.085258   1.624388   -3.358304 C.3        1 UNL1     0.0332
     57 C         0.15872   3.560062   -4.066791 C.3        1 UNL1     -0.0567
     58 C         -4.082738   4.185652   2.115447 C.3        1 UNL1     0.0210
     59 C         -2.59951   5.20761   -2.620807 C.3        1 UNL1     0.0372
     60 C         -2.519291   3.829775   -0.324061 C.2        1 UNL1     -0.0208
     61 C         -3.714613   3.687171   -0.898181 C.2        1 UNL1     0.0882
     62 H         -4.010335   -0.664062   -0.643958 H        1 UNL1     0.0365
     63 H         -5.511586   -1.256359   0.607305 H        1 UNL1     0.0576
     64 H         -5.42065   -4.298232   1.092603 H        1 UNL1     0.0615
     65 H         -7.200488   -2.01093   2.258059 H        1 UNL1     0.0622
     66 H         -1.033111   5.277466   -0.448964 H        1 UNL1     0.0645
     67 H         0.662884   4.121246   0.086723 H        1 UNL1     0.0362
     68 H         1.335344   4.039567   -2.000643 H        1 UNL1     0.0741
     69 H         1.201563   1.897884   -3.55682 H        1 UNL1     0.0359
     70 H         -0.693864   0.773384   -3.934137 H        1 UNL1     0.0600
     71 H         -0.190227   -0.913191   -2.666649 H        1 UNL1     0.0348
     72 H         -2.471242   -0.582955   -1.879272 H        1 UNL1     0.0602
     73 H         -2.419429   3.722116   0.727455 H        1 UNL1     0.0628
     74 H         -3.890419   3.724055   -1.973806 H        1 UNL1     0.1022
     75 H         -7.980111   -5.847821   3.457357 H        1 UNL1     0.0279
     76 H         -6.898003   -5.419185   4.721719 H        1 UNL1     0.0279
     77 H         -8.665806   -5.041029   4.806371 H        1 UNL1     0.0279
     78 H         -6.844268   -2.990892   5.785881 H        1 UNL1     0.1553
     79 H         -5.113239   -3.157291   4.836105 H        1 UNL1     0.1484
     80 H         -1.934869   -1.133604   4.344018 H        1 UNL1     0.0317
     81 H         -3.264551   -0.584252   5.354009 H        1 UNL1     0.0317
     82 H         -3.632761   -2.905119   6.232475 H        1 UNL1     0.0428
     83 H         -2.003903   -2.32824   6.507675 H        1 UNL1     0.0428
     84 H         -2.56046   -4.958834   3.210198 H        1 UNL1     0.0428
     85 H         -3.964488   -4.602027   4.153869 H        1 UNL1     0.0428
     86 H         -3.682541   -3.33552   2.022833 H        1 UNL1     0.0317
     87 H         -2.207368   -2.640132   2.51543 H        1 UNL1     0.0317
     88 H         -2.442769   -5.053078   6.543201 H        1 UNL1     0.0429
     89 H         -1.533969   -5.75028   5.199986 H        1 UNL1     0.0429
     90 H         -0.136996   -3.383357   6.208717 H        1 UNL1     0.0308
     91 H         -1.593743   -4.494189   8.316804 H        1 UNL1     0.0233
     92 H         -0.036192   -5.352773   8.427996 H        1 UNL1     0.0233
     93 H         -0.089075   -3.605526   8.522513 H        1 UNL1     0.0233
     94 H         0.740623   -6.251412   6.498037 H        1 UNL1     0.0233
     95 H         0.701905   -5.421594   4.934633 H        1 UNL1     0.0233
     96 H         1.734668   -4.80225   6.243756 H        1 UNL1     0.0233
     97 H         -9.304503   4.757711   3.954723 H        1 UNL1     0.0280
     98 H         -7.789107   5.4478   3.440389 H        1 UNL1     0.0280
     99 H         -8.947827   4.84209   2.219646 H        1 UNL1     0.0280
     100 H         -9.803549   1.680614   5.072717 H        1 UNL1     0.2922
     101 H         -4.191192   -1.143483   -2.874697 H        1 UNL1     0.0236
     102 H         -5.162769   -2.556285   -2.303655 H        1 UNL1     0.0236
     103 H         -3.500664   -2.733119   -2.774434 H        1 UNL1     0.0236
     104 H         -1.157143   -2.368267   -2.497573 H        1 UNL1     0.2098
     105 H         1.192033   -0.851253   -0.930169 H        1 UNL1     0.0234
     106 H         0.993031   0.922204   -1.009818 H        1 UNL1     0.0234
     107 H         0.0   0.0   0.0 H        1 UNL1     0.0234
     108 H         -2.013029   2.619892   -3.236343 H        1 UNL1     0.2098
     109 H         -0.634238   2.933728   1.579119 H        1 UNL1     0.0234
     110 H         -1.049282   1.669518   0.378155 H        1 UNL1     0.0234
     111 H         0.572924   1.829645   0.954047 H        1 UNL1     0.0234
     112 H         2.665838   0.716938   -3.80324 H        1 UNL1     0.0342
     113 H         2.567076   2.511749   -3.718749 H        1 UNL1     0.0342
     114 H         4.134775   1.700379   -3.674381 H        1 UNL1     0.0342
     115 H         0.310844   3.22013   -5.10047 H        1 UNL1     0.0234
     116 H         -0.835865   4.006997   -4.011119 H        1 UNL1     0.0234
     117 H         0.901781   4.373152   -3.998324 H        1 UNL1     0.0234
     118 H         -3.131402   3.636953   2.229005 H        1 UNL1     0.0309
     119 H         -3.867604   5.220134   1.8295 H        1 UNL1     0.0309
     120 H         -4.473119   4.228659   3.138119 H        1 UNL1     0.0309
     121 H         -3.427317   4.502293   -2.688784 H        1 UNL1     0.0524
     122 H         -2.862052   5.954639   -1.853306 H        1 UNL1     0.0524
     123 H         -2.459094   5.713551   -3.571807 H        1 UNL1     0.0524
@<TRIPOS>BOND
     1     1     2    1
     2     1    42    1
     3     2     3    2
     4     3     4    1
     5     4     5    2
     6     5     7    1
     7     6    75    1
     8     6    76    1
     9     6    77    1
    10     7     9   am
    11     9    10    1
    12    10    11    2
    13    10    43    1
    14    11    14    1
    15    11    15    1
    16    12    13   ar
    17    12    27   ar
    18    12    43    1
    19    13    14    1
    20    13    30   ar
    21    14    17    2
    22    15    16    1
    23    16    17    1
    24    16    18    1
    25    16    22    1
    26    18    19    1
    27    19    20    1
    28    20    21    1
    29    21    22    1
    30    23    24    1
    31    23    88    1
    32    23    89    1
    33    24    25    1
    34    24    26    1
    35    24    90    1
    36    25    91    1
    37    25    92    1
    38    25    93    1
    39    26    94    1
    40    26    95    1
    41    26    96    1
    42    27    28   ar
    43    28    29   ar
    44    29    30   ar
    45    29    31    1
    46    30    33    1
    47    31    32    1
    48    32    33    1
    49    32    35    1
    50    34    97    1
    51    34    98    1
    52    34    99    1
    53    35    61    1
    54    36    37    1
    55    36    60    1
    56    37    38    1
    57    38    39    1
    58    39    40    1
    59    40    41    1
    60    41    42    1
    61    45   100    1
    62    47   101    1
    63    47   102    1
    64    47   103    1
    65    48   104    1
    66    49   105    1
    67    49   106    1
    68    49   107    1
    69    50   108    1
    70    51    59    1
    71    52   109    1
    72    52   110    1
    73    52   111    1
    74    53    54    1
    75    54    55    2
    76    54    56    1
    77    56   112    1
    78    56   113    1
    79    56   114    1
    80    57   115    1
    81    57   116    1
    82    57   117    1
    83    58   118    1
    84    58   119    1
    85    58   120    1
    86    59   121    1
    87    59   122    1
    88    59   123    1
    89    60    61    2
    90     1    47    1
    91     1    62    1
    92     2    63    1
    93     3    64    1
    94     4    65    1
    95     5     6    1
    96     7     8    2
    97     9    78    1
    98    15    79    1
    99    18    80    1
   100    18    81    1
   101    19    82    1
   102    19    83    1
   103    20    23    1
   104    21    84    1
   105    21    85    1
   106    22    86    1
   107    22    87    1
   108    27    45    1
   109    28    34    1
   110    32    58    1
   111    33    46    2
   112    36    51    1
   113    36    66    1
   114    37    52    1
   115    37    67    1
   116    38    53    1
   117    38    68    1
   118    42    48    1
   119    42    72    1
   120    43    44    2
   121    60    73    1
   122    61    74    1
   123    39    69    1
   124    39    57    1
   125    40    70    1
   126    40    50    1
   127    41    71    1
   128    41    49    1
