@<TRIPOS>MOLECULE
*****
 123 128 0 0 0
SMALL
GASTEIGER

@<TRIPOS>ATOM
     1 C         5.166388   1.76031   0.457185 C.3        1 UNL1     0.0009
     2 C         6.59584   2.569045   -0.402844 C.2        1 UNL1     -0.0787
     3 C         7.873639   2.473258   -1.076714 C.2        1 UNL1     -0.0649
     4 C         8.743537   3.709846   -1.83861 C.2        1 UNL1     -0.0542
     5 C         9.75689   4.004161   -2.783899 C.2        1 UNL1     0.0115
     6 C         10.88088   3.380667   -3.65638 C.3        1 UNL1     -0.0348
     7 C         9.845111   5.487267   -3.391848 C.2        1 UNL1     0.2441
     8 O         10.669605   6.310925   -3.019929 O.2        1 UNL1     -0.2702
     9 N         9.086957   5.691919   -4.557812 N.am        1 UNL1     -0.2772
     10 C         7.805439   6.075993   -4.236066 C.2        1 UNL1     0.1049
     11 C         6.963658   5.102914   -3.938166 C.2        1 UNL1     0.0801
     12 C         6.512613   7.680641   -2.817955 C.ar        1 UNL1     0.0753
     13 C         5.758896   6.551339   -2.364969 C.ar        1 UNL1     0.0305
     14 C         5.874534   5.245519   -3.010347 C.2        1 UNL1     0.0924
     15 N         7.088151   3.774113   -4.09728 N.pl3        1 UNL1     -0.3170
     16 C         5.821638   3.172367   -3.774633 C.3        1 UNL1     0.1275
     17 N         5.189449   4.126787   -2.7912 N.2        1 UNL1     -0.2557
     18 C         4.960587   3.228844   -5.032847 C.3        1 UNL1     0.0016
     19 C         5.709711   2.545736   -6.165881 C.3        1 UNL1     0.0026
     20 N         5.98532   1.16845   -5.780974 N.3        1 UNL1     -0.3018
     21 C         6.756947   1.010441   -4.546473 C.3        1 UNL1     0.0026
     22 C         5.983896   1.699921   -3.420905 C.3        1 UNL1     0.0016
     23 C         6.424494   0.349233   -6.893023 C.3        1 UNL1     0.0012
     24 C         5.263328   0.096671   -7.867529 C.3        1 UNL1     -0.0339
     25 C         5.348586   1.018759   -9.094942 C.3        1 UNL1     -0.0615
     26 C         5.230002   -1.367571   -8.269605 C.3        1 UNL1     -0.0615
     27 C         6.308653   8.948202   -2.277763 C.ar        1 UNL1     0.1347
     28 C         5.35518   9.216226   -1.311791 C.ar        1 UNL1     0.0342
     29 C         4.659054   8.080524   -0.846224 C.ar        1 UNL1     0.1435
     30 C         4.878046   6.798681   -1.352328 C.ar        1 UNL1     0.0774
     31 O         3.623308   8.192327   0.013855 O.3        1 UNL1     -0.4436
     32 C         2.903421   6.957858   -0.12297 C.3        1 UNL1     0.3143
     33 C         3.915447   5.966645   -0.661034 C.2        1 UNL1     0.2504
     34 C         4.9082   10.581614   -0.869045 C.3        1 UNL1     -0.0327
     35 O         2.55218   6.52115   1.195805 O.2        1 UNL1     -0.4528
     36 C         -0.689127   4.581684   0.820986 C.3        1 UNL1     0.0854
     37 C         -0.997434   3.31991   -0.073662 C.3        1 UNL1     0.0236
     38 C         -1.590177   2.058029   0.718838 C.3        1 UNL1     0.1131
     39 C         -0.854934   1.529443   2.015867 C.3        1 UNL1     0.0200
     40 C         0.806801   1.387534   2.046464 C.3        1 UNL1     0.0661
     41 C         1.760327   0.620099   0.871967 C.3        1 UNL1     0.0091
     42 C         3.463468   0.986033   0.296811 C.3        1 UNL1     0.0661
     43 C         7.455897   7.474339   -3.94486 C.2        1 UNL1     0.2131
     44 O         7.849207   8.372858   -4.666462 O.2        1 UNL1     -0.2851
     45 O         7.115707   9.9848   -2.742055 O.3        1 UNL1     -0.5056
     46 O         3.934895   4.763227   -0.529663 O.2        1 UNL1     -0.2836
     47 C         5.572901   1.332552   1.893065 C.3        1 UNL1     -0.0566
     48 O         3.915618   -0.424045   0.376538 O.3        1 UNL1     -0.3909
     49 C         0.91871   0.384957   -0.36249 C.3        1 UNL1     -0.0577
     50 O         1.406855   2.606932   2.4347 O.3        1 UNL1     -0.3910
     51 O         -0.803873   4.392572   2.213287 O.3        1 UNL1     -0.3753
     52 C         0.039952   3.161019   -1.232771 C.3        1 UNL1     -0.0564
     53 O         -2.196278   1.0172   -0.176507 O.3        1 UNL1     -0.4608
     54 C         -2.394511   -0.297932   0.153736 C.2        1 UNL1     0.3042
     55 O         -1.81236   -1.279431   -0.306262 O.2        1 UNL1     -0.2512
     56 C         -3.408453   -0.497985   1.243972 C.3        1 UNL1     0.0332
     57 C         -1.569308   2.197625   3.281323 C.3        1 UNL1     -0.0567
     58 C         1.82076   7.199963   -1.200356 C.3        1 UNL1     0.0210
     59 C         -1.114878   5.571338   2.954671 C.3        1 UNL1     0.0372
     60 C         0.63699   5.213514   0.581475 C.2        1 UNL1     -0.0208
     61 C         1.554538   5.651251   1.444746 C.2        1 UNL1     0.0882
     62 H         4.688898   2.743499   0.546928 H        1 UNL1     0.0365
     63 H         6.327983   3.622327   -0.296452 H        1 UNL1     0.0576
     64 H         8.331966   1.507271   -1.300127 H        1 UNL1     0.0615
     65 H         8.256701   4.624392   -1.48921 H        1 UNL1     0.0622
     66 H         -1.437375   5.326407   0.515112 H        1 UNL1     0.0645
     67 H         -1.867559   3.627027   -0.679566 H        1 UNL1     0.0362
     68 H         -2.535917   2.49306   1.076393 H        1 UNL1     0.0741
     69 H         -1.182996   0.517746   2.21399 H        1 UNL1     0.0359
     70 H         0.925668   0.72798   2.927327 H        1 UNL1     0.0600
     71 H         1.80887   -0.400711   1.299223 H        1 UNL1     0.0348
     72 H         3.362819   1.474599   1.276856 H        1 UNL1     0.0602
     73 H         0.747797   5.410391   -0.45593 H        1 UNL1     0.0628
     74 H         1.544321   5.441197   2.514798 H        1 UNL1     0.1022
     75 H         10.910002   2.272135   -3.524683 H        1 UNL1     0.0279
     76 H         10.773535   3.485852   -4.733637 H        1 UNL1     0.0279
     77 H         11.888317   3.66557   -3.319331 H        1 UNL1     0.0279
     78 H         9.023478   4.82152   -5.081694 H        1 UNL1     0.1553
     79 H         7.750371   3.347192   -4.718679 H        1 UNL1     0.1484
     80 H         4.001641   2.735944   -4.832249 H        1 UNL1     0.0317
     81 H         4.72999   4.264939   -5.303004 H        1 UNL1     0.0317
     82 H         6.637605   3.078905   -6.420156 H        1 UNL1     0.0428
     83 H         5.078725   2.598981   -7.053615 H        1 UNL1     0.0428
     84 H         6.881517   -0.03206   -4.237464 H        1 UNL1     0.0428
     85 H         7.78555   1.380644   -4.657126 H        1 UNL1     0.0428
     86 H         6.506685   1.451231   -2.516011 H        1 UNL1     0.0317
     87 H         5.006316   1.220237   -3.289241 H        1 UNL1     0.0317
     88 H         7.215974   0.892434   -7.425739 H        1 UNL1     0.0429
     89 H         6.861389   -0.595385   -6.544321 H        1 UNL1     0.0429
     90 H         4.3143   0.287564   -7.352632 H        1 UNL1     0.0308
     91 H         6.300837   0.895653   -9.619504 H        1 UNL1     0.0233
     92 H         4.528599   0.81626   -9.787925 H        1 UNL1     0.0233
     93 H         5.267732   2.079199   -8.827055 H        1 UNL1     0.0233
     94 H         4.569834   -1.507392   -9.132429 H        1 UNL1     0.0233
     95 H         6.232214   -1.699673   -8.554633 H        1 UNL1     0.0233
     96 H         4.868486   -1.997721   -7.45218 H        1 UNL1     0.0233
     97 H         4.080583   10.531905   -0.167753 H        1 UNL1     0.0280
     98 H         5.706421   11.131377   -0.353427 H        1 UNL1     0.0280
     99 H         4.583752   11.165975   -1.745601 H        1 UNL1     0.0280
     100 H         6.64594   10.746982   -3.031917 H        1 UNL1     0.2922
     101 H         4.691265   1.00166   2.441594 H        1 UNL1     0.0236
     102 H         6.123281   2.104052   2.430516 H        1 UNL1     0.0236
     103 H         6.245089   0.458282   1.890053 H        1 UNL1     0.0236
     104 H         4.335667   -0.550172   1.24982 H        1 UNL1     0.2098
     105 H         0.700429   1.282973   -0.93497 H        1 UNL1     0.0234
     106 H         1.285589   -0.402663   -1.020503 H        1 UNL1     0.0234
     107 H         0.0   -0.0   0.0 H        1 UNL1     0.0234
     108 H         1.25626   3.247149   1.71275 H        1 UNL1     0.2098
     109 H         1.068873   3.062398   -0.859531 H        1 UNL1     0.0234
     110 H         -0.188324   2.325405   -1.903131 H        1 UNL1     0.0234
     111 H         0.046205   4.038223   -1.893393 H        1 UNL1     0.0234
     112 H         -3.503275   -1.563768   1.473015 H        1 UNL1     0.0342
     113 H         -3.166205   0.073837   2.1385 H        1 UNL1     0.0342
     114 H         -4.381698   -0.144617   0.876428 H        1 UNL1     0.0342
     115 H         -2.640719   1.95721   3.31962 H        1 UNL1     0.0234
     116 H         -1.133738   1.909885   4.240246 H        1 UNL1     0.0234
     117 H         -1.599681   3.299965   3.238137 H        1 UNL1     0.0234
     118 H         0.919446   7.680929   -0.781654 H        1 UNL1     0.0309
     119 H         2.182121   7.792118   -2.047099 H        1 UNL1     0.0309
     120 H         1.434792   6.267021   -1.62551 H        1 UNL1     0.0309
     121 H         -0.279042   6.261399   2.842645 H        1 UNL1     0.0524
     122 H         -2.017341   6.078573   2.574788 H        1 UNL1     0.0524
     123 H         -1.262136   5.328021   4.003102 H        1 UNL1     0.0524
@<TRIPOS>BOND
     1     1     2    1
     2     1    42    1
     3     2     3    2
     4     3     4    1
     5     4     5    2
     6     5     7    1
     7     6    75    1
     8     6    76    1
     9     6    77    1
    10     7     9   am
    11     9    10    1
    12    10    11    2
    13    10    43    1
    14    11    14    1
    15    11    15    1
    16    12    13   ar
    17    12    27   ar
    18    12    43    1
    19    13    14    1
    20    13    30   ar
    21    14    17    2
    22    15    16    1
    23    16    17    1
    24    16    18    1
    25    16    22    1
    26    18    19    1
    27    19    20    1
    28    20    21    1
    29    21    22    1
    30    23    24    1
    31    23    88    1
    32    23    89    1
    33    24    25    1
    34    24    26    1
    35    24    90    1
    36    25    91    1
    37    25    92    1
    38    25    93    1
    39    26    94    1
    40    26    95    1
    41    26    96    1
    42    27    28   ar
    43    28    29   ar
    44    29    30   ar
    45    29    31    1
    46    30    33    1
    47    31    32    1
    48    32    33    1
    49    32    35    1
    50    34    97    1
    51    34    98    1
    52    34    99    1
    53    35    61    1
    54    36    37    1
    55    36    60    1
    56    37    38    1
    57    38    39    1
    58    39    40    1
    59    40    41    1
    60    41    42    1
    61    45   100    1
    62    47   101    1
    63    47   102    1
    64    47   103    1
    65    48   104    1
    66    49   105    1
    67    49   106    1
    68    49   107    1
    69    50   108    1
    70    51    59    1
    71    52   109    1
    72    52   110    1
    73    52   111    1
    74    53    54    1
    75    54    55    2
    76    54    56    1
    77    56   112    1
    78    56   113    1
    79    56   114    1
    80    57   115    1
    81    57   116    1
    82    57   117    1
    83    58   118    1
    84    58   119    1
    85    58   120    1
    86    59   121    1
    87    59   122    1
    88    59   123    1
    89    60    61    2
    90     1    47    1
    91     1    62    1
    92     2    63    1
    93     3    64    1
    94     4    65    1
    95     5     6    1
    96     7     8    2
    97     9    78    1
    98    15    79    1
    99    18    80    1
   100    18    81    1
   101    19    82    1
   102    19    83    1
   103    20    23    1
   104    21    84    1
   105    21    85    1
   106    22    86    1
   107    22    87    1
   108    27    45    1
   109    28    34    1
   110    32    58    1
   111    33    46    2
   112    36    51    1
   113    36    66    1
   114    37    52    1
   115    37    67    1
   116    38    53    1
   117    38    68    1
   118    42    48    1
   119    42    72    1
   120    43    44    2
   121    60    73    1
   122    61    74    1
   123    39    69    1
   124    39    57    1
   125    40    70    1
   126    40    50    1
   127    41    71    1
   128    41    49    1
