@<TRIPOS>MOLECULE
*****
 123 128 0 0 0
SMALL
GASTEIGER

@<TRIPOS>ATOM
     1 C         -0.16498   4.113533   1.011252 C.3        1 UNL1     0.0009
     2 C         -1.252348   5.418434   0.268352 C.2        1 UNL1     -0.0787
     3 C         -1.424873   6.567491   -0.595331 C.2        1 UNL1     -0.0649
     4 C         -2.867175   7.353127   -1.006303 C.2        1 UNL1     -0.0542
     5 C         -3.495246   8.213537   -1.940274 C.2        1 UNL1     0.0115
     6 C         -3.24105   9.158205   -3.14705 C.3        1 UNL1     -0.0348
     7 C         -5.098859   8.262506   -1.995169 C.2        1 UNL1     0.2441
     8 O         -5.754352   9.167872   -1.498009 O.2        1 UNL1     -0.2702
     9 N         -5.686613   7.336749   -2.874755 N.am        1 UNL1     -0.2772
     10 C         -5.907845   6.139293   -2.234069 C.2        1 UNL1     0.1049
     11 C         -4.876157   5.317825   -2.163144 C.2        1 UNL1     0.0801
     12 C         -6.884502   5.154168   -0.152483 C.ar        1 UNL1     0.0753
     13 C         -5.65369   4.438101   -0.007716 C.ar        1 UNL1     0.0305
     14 C         -4.661582   4.39726   -1.07968 C.2        1 UNL1     0.0924
     15 N         -3.69135   5.362401   -2.79621 N.pl3        1 UNL1     -0.3170
     16 C         -2.990178   4.140696   -2.502871 C.3        1 UNL1     0.1275
     17 N         -3.524393   3.711995   -1.158047 N.2        1 UNL1     -0.2557
     18 C         -3.469818   3.09283   -3.502683 C.3        1 UNL1     0.0016
     19 C         -3.244432   3.623788   -4.909408 C.3        1 UNL1     0.0026
     20 N         -1.825456   3.902309   -5.082498 N.3        1 UNL1     -0.3018
     21 C         -1.257449   4.854148   -4.125555 C.3        1 UNL1     0.0026
     22 C         -1.490965   4.298651   -2.719572 C.3        1 UNL1     0.0016
     23 C         -1.459343   4.125473   -6.466984 C.3        1 UNL1     0.0012
     24 C         -1.544056   2.814566   -7.264544 C.3        1 UNL1     -0.0339
     25 C         -0.467424   2.752493   -8.360476 C.3        1 UNL1     -0.0615
     26 C         -1.453175   1.625748   -6.323676 C.3        1 UNL1     -0.0615
     27 C         -7.876178   5.089584   0.823492 C.ar        1 UNL1     0.1347
     28 C         -7.768124   4.313896   1.963967 C.ar        1 UNL1     0.0342
     29 C         -6.528   3.656391   2.108684 C.ar        1 UNL1     0.1435
     30 C         -5.511239   3.740674   1.15668 C.ar        1 UNL1     0.0774
     31 O         -6.309509   2.776442   3.110162 O.3        1 UNL1     -0.4436
     32 C         -5.188811   1.995442   2.668635 C.3        1 UNL1     0.3143
     33 C         -4.470546   2.868417   1.659564 C.2        1 UNL1     0.2504
     34 C         -8.880981   3.997941   2.924082 C.3        1 UNL1     -0.0327
     35 O         -4.308668   1.842069   3.788937 O.2        1 UNL1     -0.4528
     36 C         -2.563549   -1.492028   3.292503 C.3        1 UNL1     0.0854
     37 C         -1.692317   -1.989069   2.075364 C.3        1 UNL1     0.0236
     38 C         -0.220914   -2.497446   2.460423 C.3        1 UNL1     0.1131
     39 C         0.716559   -1.586251   3.351007 C.3        1 UNL1     0.0200
     40 C         0.828043   0.052099   3.058059 C.3        1 UNL1     0.0661
     41 C         1.113771   0.774705   1.550144 C.3        1 UNL1     0.0091
     42 C         0.535818   2.377424   0.869947 C.3        1 UNL1     0.0661
     43 C         -7.106826   5.896576   -1.41805 C.2        1 UNL1     0.2131
     44 O         -8.209416   6.205102   -1.832592 O.2        1 UNL1     -0.2851
     45 O         -9.025266   5.852771   0.627078 O.3        1 UNL1     -0.5056
     46 O         -3.298653   2.860719   1.355492 O.2        1 UNL1     -0.2836
     47 C         0.733433   4.72664   2.118924 C.3        1 UNL1     -0.0566
     48 O         1.874519   2.780078   0.375108 O.3        1 UNL1     -0.3909
     49 C         0.91498   -0.261793   0.466794 C.3        1 UNL1     -0.0577
     50 O         -0.187639   0.754417   3.745708 O.3        1 UNL1     -0.3910
     51 O         -1.893721   -1.390549   4.528813 O.3        1 UNL1     -0.3753
     52 C         -1.972166   -1.157094   0.781358 C.3        1 UNL1     -0.0564
     53 O         0.449094   -3.279554   1.368762 O.3        1 UNL1     -0.4608
     54 C         1.800447   -3.466418   1.238934 C.2        1 UNL1     0.3042
     55 O         2.562212   -2.893936   0.460592 O.2        1 UNL1     -0.2512
     56 C         2.368308   -4.451937   2.220259 C.3        1 UNL1     0.0332
     57 C         0.551137   -2.062394   4.868933 C.3        1 UNL1     -0.0567
     58 C         -5.774127   0.76522   1.936864 C.3        1 UNL1     0.0210
     59 C         -2.246957   -2.388387   5.485584 C.3        1 UNL1     0.0372
     60 C         -3.264721   -0.197067   3.076642 C.2        1 UNL1     -0.0208
     61 C         -3.387765   0.86315   3.876357 C.2        1 UNL1     0.0882
     62 H         -1.044051   3.695955   1.516795 H        1 UNL1     0.0365
     63 H         -2.19518   5.213078   0.779592 H        1 UNL1     0.0576
     64 H         -0.608635   6.945521   -1.214973 H        1 UNL1     0.0615
     65 H         -3.590333   6.965037   -0.283868 H        1 UNL1     0.0622
     66 H         -3.353697   -2.24929   3.393823 H        1 UNL1     0.0645
     67 H         -2.176406   -2.931826   1.766452 H        1 UNL1     0.0362
     68 H         -0.483685   -3.355955   3.097161 H        1 UNL1     0.0741
     69 H         1.739301   -1.918454   3.232481 H        1 UNL1     0.0359
     70 H         1.753288   0.283691   3.619617 H        1 UNL1     0.0600
     71 H         2.218521   0.850183   1.578206 H        1 UNL1     0.0348
     72 H         0.426022   2.453963   1.961461 H        1 UNL1     0.0602
     73 H         -3.816667   -0.245489   2.170961 H        1 UNL1     0.0628
     74 H         -2.813926   1.015478   4.791094 H        1 UNL1     0.1022
     75 H         -2.468732   9.922866   -2.890434 H        1 UNL1     0.0279
     76 H         -2.828522   8.700183   -4.043211 H        1 UNL1     0.0279
     77 H         -4.107618   9.794629   -3.378835 H        1 UNL1     0.0279
     78 H         -5.05563   7.155929   -3.652727 H        1 UNL1     0.1553
     79 H         -3.523678   5.899469   -3.6271 H        1 UNL1     0.1484
     80 H         -2.919435   2.159356   -3.333949 H        1 UNL1     0.0317
     81 H         -4.52999   2.863455   -3.350786 H        1 UNL1     0.0317
     82 H         -3.85081   4.519669   -5.108446 H        1 UNL1     0.0428
     83 H         -3.594925   2.861847   -5.606295 H        1 UNL1     0.0428
     84 H         -0.175544   4.984885   -4.226555 H        1 UNL1     0.0428
     85 H         -1.662677   5.865805   -4.265753 H        1 UNL1     0.0428
     86 H         -0.94947   4.948836   -2.057733 H        1 UNL1     0.0317
     87 H         -0.976882   3.33632   -2.606726 H        1 UNL1     0.0317
     88 H         -2.170601   4.842764   -6.896985 H        1 UNL1     0.0429
     89 H         -0.461061   4.574509   -6.548063 H        1 UNL1     0.0429
     90 H         -2.529996   2.746076   -7.739354 H        1 UNL1     0.0308
     91 H         0.510676   3.055199   -7.974742 H        1 UNL1     0.0233
     92 H         -0.393697   1.743473   -8.772851 H        1 UNL1     0.0233
     93 H         -0.694016   3.412742   -9.206384 H        1 UNL1     0.0233
     94 H         -1.126195   0.735039   -6.870995 H        1 UNL1     0.0233
     95 H         -0.71982   1.826545   -5.537652 H        1 UNL1     0.0233
     96 H         -2.419161   1.410256   -5.858486 H        1 UNL1     0.0233
     97 H         -9.175953   4.866118   3.505881 H        1 UNL1     0.0280
     98 H         -9.788953   3.659262   2.408194 H        1 UNL1     0.0280
     99 H         -8.553947   3.209445   3.621519 H        1 UNL1     0.0280
     100 H         -8.86415   6.751509   0.399188 H        1 UNL1     0.2922
     101 H         1.590889   4.078198   2.297661 H        1 UNL1     0.0236
     102 H         0.190492   4.949085   3.03692 H        1 UNL1     0.0236
     103 H         1.17113   5.690791   1.810658 H        1 UNL1     0.0236
     104 H         1.957064   2.461238   -0.544945 H        1 UNL1     0.2098
     105 H         1.68855   -0.267176   -0.296994 H        1 UNL1     0.0234
     106 H         0.737165   -1.273369   0.831518 H        1 UNL1     0.0234
     107 H         0.0   0.0   0.0 H        1 UNL1     0.0234
     108 H         -0.061758   1.704441   3.557622 H        1 UNL1     0.2098
     109 H         -3.019931   -1.230536   0.458084 H        1 UNL1     0.0234
     110 H         -1.691733   -0.102741   0.878527 H        1 UNL1     0.0234
     111 H         -1.373582   -1.514661   -0.067046 H        1 UNL1     0.0234
     112 H         3.065466   -5.12439   1.711217 H        1 UNL1     0.0342
     113 H         2.847242   -3.9591   3.064994 H        1 UNL1     0.0342
     114 H         1.541625   -5.059108   2.614089 H        1 UNL1     0.0342
     115 H         1.012286   -1.354653   5.571523 H        1 UNL1     0.0234
     116 H         -0.486004   -2.204338   5.17916 H        1 UNL1     0.0234
     117 H         1.106189   -2.987122   5.102888 H        1 UNL1     0.0234
     118 H         -5.614239   -0.168931   2.503259 H        1 UNL1     0.0309
     119 H         -6.8398   0.867841   1.7088 H        1 UNL1     0.0309
     120 H         -5.276905   0.569043   0.980626 H        1 UNL1     0.0309
     121 H         -2.060909   -1.975414   6.476642 H        1 UNL1     0.0524
     122 H         -3.314855   -2.658438   5.433591 H        1 UNL1     0.0524
     123 H         -1.649317   -3.282775   5.333957 H        1 UNL1     0.0524
@<TRIPOS>BOND
     1     1     2    1
     2     1    42    1
     3     2     3    2
     4     3     4    1
     5     4     5    2
     6     5     7    1
     7     6    75    1
     8     6    76    1
     9     6    77    1
    10     7     9   am
    11     9    10    1
    12    10    11    2
    13    10    43    1
    14    11    14    1
    15    11    15    1
    16    12    13   ar
    17    12    27   ar
    18    12    43    1
    19    13    14    1
    20    13    30   ar
    21    14    17    2
    22    15    16    1
    23    16    17    1
    24    16    18    1
    25    16    22    1
    26    18    19    1
    27    19    20    1
    28    20    21    1
    29    21    22    1
    30    23    24    1
    31    23    88    1
    32    23    89    1
    33    24    25    1
    34    24    26    1
    35    24    90    1
    36    25    91    1
    37    25    92    1
    38    25    93    1
    39    26    94    1
    40    26    95    1
    41    26    96    1
    42    27    28   ar
    43    28    29   ar
    44    29    30   ar
    45    29    31    1
    46    30    33    1
    47    31    32    1
    48    32    33    1
    49    32    35    1
    50    34    97    1
    51    34    98    1
    52    34    99    1
    53    35    61    1
    54    36    37    1
    55    36    60    1
    56    37    38    1
    57    38    39    1
    58    39    40    1
    59    40    41    1
    60    41    42    1
    61    45   100    1
    62    47   101    1
    63    47   102    1
    64    47   103    1
    65    48   104    1
    66    49   105    1
    67    49   106    1
    68    49   107    1
    69    50   108    1
    70    51    59    1
    71    52   109    1
    72    52   110    1
    73    52   111    1
    74    53    54    1
    75    54    55    2
    76    54    56    1
    77    56   112    1
    78    56   113    1
    79    56   114    1
    80    57   115    1
    81    57   116    1
    82    57   117    1
    83    58   118    1
    84    58   119    1
    85    58   120    1
    86    59   121    1
    87    59   122    1
    88    59   123    1
    89    60    61    2
    90     1    47    1
    91     1    62    1
    92     2    63    1
    93     3    64    1
    94     4    65    1
    95     5     6    1
    96     7     8    2
    97     9    78    1
    98    15    79    1
    99    18    80    1
   100    18    81    1
   101    19    82    1
   102    19    83    1
   103    20    23    1
   104    21    84    1
   105    21    85    1
   106    22    86    1
   107    22    87    1
   108    27    45    1
   109    28    34    1
   110    32    58    1
   111    33    46    2
   112    36    51    1
   113    36    66    1
   114    37    52    1
   115    37    67    1
   116    38    53    1
   117    38    68    1
   118    42    48    1
   119    42    72    1
   120    43    44    2
   121    60    73    1
   122    61    74    1
   123    39    69    1
   124    39    57    1
   125    40    70    1
   126    40    50    1
   127    41    71    1
   128    41    49    1
