@<TRIPOS>MOLECULE
*****
 123 128 0 0 0
SMALL
GASTEIGER

@<TRIPOS>ATOM
     1 C         -2.713754   2.103952   3.68904 C.3        1 UNL1     0.0009
     2 C         -4.049986   3.382517   3.818621 C.2        1 UNL1     -0.0787
     3 C         -4.512659   4.673129   4.283705 C.2        1 UNL1     -0.0649
     4 C         -5.987527   5.433119   3.946757 C.2        1 UNL1     -0.0542
     5 C         -6.676486   6.67074   3.920144 C.2        1 UNL1     0.0115
     6 C         -6.593179   8.164549   4.338376 C.3        1 UNL1     -0.0348
     7 C         -8.030553   6.787865   3.065876 C.2        1 UNL1     0.2441
     8 O         -9.142604   6.766649   3.575207 O.2        1 UNL1     -0.2702
     9 N         -7.850591   7.177718   1.727302 N.am        1 UNL1     -0.2772
     10 C         -7.636222   6.076222   0.931015 C.2        1 UNL1     0.1049
     11 C         -6.398801   5.61611   0.894854 C.2        1 UNL1     0.0801
     12 C         -8.537868   3.802885   0.405367 C.ar        1 UNL1     0.0753
     13 C         -7.203066   3.318101   0.583963 C.ar        1 UNL1     0.0305
     14 C         -6.06768   4.229841   0.705132 C.2        1 UNL1     0.0924
     15 N         -5.258521   6.168005   1.343967 N.pl3        1 UNL1     -0.3170
     16 C         -4.166881   5.339719   0.905197 C.3        1 UNL1     0.1275
     17 N         -4.767025   3.961039   0.775612 N.2        1 UNL1     -0.2557
     18 C         -3.806332   5.779414   -0.510563 C.3        1 UNL1     0.0016
     19 C         -3.497525   7.268018   -0.493689 C.3        1 UNL1     0.0026
     20 N         -2.393778   7.506379   0.426068 N.3        1 UNL1     -0.3018
     21 C         -2.62318   7.059573   1.801607 C.3        1 UNL1     0.0026
     22 C         -2.926941   5.560903   1.761452 C.3        1 UNL1     0.0016
     23 C         -1.826411   8.833539   0.294218 C.3        1 UNL1     0.0012
     24 C         -1.062969   8.963499   -1.033194 C.3        1 UNL1     -0.0339
     25 C         -2.025307   9.108603   -2.223533 C.3        1 UNL1     -0.0615
     26 C         -0.085214   10.123434   -0.960217 C.3        1 UNL1     -0.0615
     27 C         -9.597351   2.929866   0.169882 C.ar        1 UNL1     0.1347
     28 C         -9.439582   1.560409   0.052639 C.ar        1 UNL1     0.0342
     29 C         -8.124806   1.101564   0.280654 C.ar        1 UNL1     0.1435
     30 C         -7.059991   1.961227   0.553356 C.ar        1 UNL1     0.0774
     31 O         -7.788023   -0.193361   0.094234 O.3        1 UNL1     -0.4436
     32 C         -6.35957   -0.179723   -0.047932 C.3        1 UNL1     0.3143
     33 C         -5.905166   1.091911   0.639583 C.2        1 UNL1     0.2504
     34 C         -10.476979   0.592759   -0.444917 C.3        1 UNL1     -0.0327
     35 O         -5.844712   -1.275346   0.718739 O.2        1 UNL1     -0.4528
     36 C         -2.663654   -2.371188   -1.038556 C.3        1 UNL1     0.0854
     37 C         -1.374291   -1.529962   -1.381201 C.3        1 UNL1     0.0236
     38 C         -1.5e-05   -2.143753   -0.827694 C.3        1 UNL1     0.1131
     39 C         0.117425   -2.560014   0.693886 C.3        1 UNL1     0.0200
     40 C         -0.490718   -1.569333   1.890193 C.3        1 UNL1     0.0661
     41 C         -0.195659   0.093639   2.048548 C.3        1 UNL1     0.0091
     42 C         -1.262765   1.434522   2.703314 C.3        1 UNL1     0.0661
     43 C         -8.742571   5.272621   0.390116 C.2        1 UNL1     0.2131
     44 O         -9.704593   5.812874   -0.125032 O.2        1 UNL1     -0.2851
     45 O         -10.872336   3.479531   0.052759 O.3        1 UNL1     -0.5056
     46 O         -4.837916   1.326639   1.160864 O.2        1 UNL1     -0.2836
     47 C         -2.54476   1.361526   5.041898 C.3        1 UNL1     -0.0566
     48 O         -0.200258   2.018357   3.557323 O.3        1 UNL1     -0.3909
     49 C         0.417199   0.605027   0.763876 C.3        1 UNL1     -0.0577
     50 O         -1.858779   -1.841225   2.118685 O.3        1 UNL1     -0.3910
     51 O         -2.477136   -3.450634   -0.151179 O.3        1 UNL1     -0.3753
     52 C         -1.662325   0.006873   -1.370114 C.3        1 UNL1     -0.0564
     53 O         1.222909   -1.536292   -1.45041 O.3        1 UNL1     -0.4608
     54 C         2.399513   -1.272952   -0.799115 C.2        1 UNL1     0.3042
     55 O         2.687063   -0.26508   -0.15464 O.2        1 UNL1     -0.2512
     56 C         3.390415   -2.399919   -0.86819 C.3        1 UNL1     0.0332
     57 C         -0.196574   -4.125291   0.791295 C.3        1 UNL1     -0.0567
     58 C         -6.071877   -0.058135   -1.56252 C.3        1 UNL1     0.0210
     59 C         -2.552087   -4.741792   -0.753806 C.3        1 UNL1     0.0372
     60 C         -3.810635   -1.579456   -0.516298 C.2        1 UNL1     -0.0208
     61 C         -4.629713   -1.817359   0.509012 C.2        1 UNL1     0.0882
     62 H         -3.386404   1.490649   3.077393 H        1 UNL1     0.0365
     63 H         -4.878565   2.860765   3.335194 H        1 UNL1     0.0576
     64 H         -3.843719   5.3726   4.790034 H        1 UNL1     0.0615
     65 H         -6.600795   4.634558   3.520513 H        1 UNL1     0.0622
     66 H         -2.993186   -2.777353   -2.005244 H        1 UNL1     0.0645
     67 H         -1.250289   -1.66098   -2.470246 H        1 UNL1     0.0362
     68 H         0.01935   -3.089098   -1.391138 H        1 UNL1     0.0741
     69 H         1.164781   -2.631881   0.955205 H        1 UNL1     0.0359
     70 H         0.026745   -1.994643   2.77133 H        1 UNL1     0.0600
     71 H         0.687815   0.070465   2.7163 H        1 UNL1     0.0348
     72 H         -1.680113   0.495852   3.095786 H        1 UNL1     0.0602
     73 H         -4.010984   -0.775345   -1.180011 H        1 UNL1     0.0628
     74 H         -4.462812   -2.583776   1.266631 H        1 UNL1     0.1022
     75 H         -6.263449   8.256231   5.401346 H        1 UNL1     0.0279
     76 H         -5.862547   8.775426   3.812947 H        1 UNL1     0.0279
     77 H         -7.578616   8.651708   4.374281 H        1 UNL1     0.0279
     78 H         -7.029383   7.774432   1.65229 H        1 UNL1     0.1553
     79 H         -5.153415   7.146092   1.542037 H        1 UNL1     0.1484
     80 H         -2.945301   5.195658   -0.857866 H        1 UNL1     0.0317
     81 H         -4.626837   5.571631   -1.205724 H        1 UNL1     0.0317
     82 H         -4.379634   7.863689   -0.216249 H        1 UNL1     0.0428
     83 H         -3.244776   7.56086   -1.513205 H        1 UNL1     0.0428
     84 H         -1.750999   7.177152   2.452213 H        1 UNL1     0.0428
     85 H         -3.407173   7.648563   2.297351 H        1 UNL1     0.0428
     86 H         -2.957029   5.243976   2.787435 H        1 UNL1     0.0317
     87 H         -2.067848   5.015275   1.352372 H        1 UNL1     0.0317
     88 H         -2.650452   9.558969   0.295924 H        1 UNL1     0.0429
     89 H         -1.181036   9.077913   1.147767 H        1 UNL1     0.0429
     90 H         -0.451996   8.06588   -1.185526 H        1 UNL1     0.0308
     91 H         -1.880321   8.305569   -2.95238 H        1 UNL1     0.0233
     92 H         -3.063673   9.101504   -1.883895 H        1 UNL1     0.0233
     93 H         -1.885686   10.054634   -2.76053 H        1 UNL1     0.0233
     94 H         0.167523   10.468395   -1.968663 H        1 UNL1     0.0233
     95 H         -0.53794   10.960378   -0.421212 H        1 UNL1     0.0233
     96 H         0.839085   9.834834   -0.451936 H        1 UNL1     0.0233
     97 H         -10.134537   0.039718   -1.314463 H        1 UNL1     0.0280
     98 H         -10.734132   -0.162339   0.309375 H        1 UNL1     0.0280
     99 H         -11.391129   1.142411   -0.72296 H        1 UNL1     0.0280
     100 H         -11.104303   4.080185   0.739074 H        1 UNL1     0.2922
     101 H         -2.990048   0.369118   4.974801 H        1 UNL1     0.0236
     102 H         -2.92878   1.925529   5.891258 H        1 UNL1     0.0236
     103 H         -1.48467   1.176866   5.283356 H        1 UNL1     0.0236
     104 H         0.315251   1.278498   3.933926 H        1 UNL1     0.2098
     105 H         0.180298   1.640917   0.534484 H        1 UNL1     0.0234
     106 H         1.489469   0.433209   0.670906 H        1 UNL1     0.0234
     107 H         0.0   0.0   0.0 H        1 UNL1     0.0234
     108 H         -1.941848   -2.802067   2.272472 H        1 UNL1     0.2098
     109 H         -2.420843   0.293292   -2.111954 H        1 UNL1     0.0234
     110 H         -1.954221   0.382949   -0.383652 H        1 UNL1     0.0234
     111 H         -0.7656   0.588536   -1.622101 H        1 UNL1     0.0234
     112 H         4.295294   -2.134391   -0.313182 H        1 UNL1     0.0342
     113 H         2.970676   -3.337108   -0.505782 H        1 UNL1     0.0342
     114 H         3.6713   -2.545802   -1.920324 H        1 UNL1     0.0342
     115 H         0.694477   -4.703926   1.071294 H        1 UNL1     0.0234
     116 H         -0.987374   -4.376112   1.501064 H        1 UNL1     0.0234
     117 H         -0.452146   -4.583943   -0.179407 H        1 UNL1     0.0234
     118 H         -5.643346   -0.986539   -1.978973 H        1 UNL1     0.0309
     119 H         -6.954346   0.22232   -2.146297 H        1 UNL1     0.0309
     120 H         -5.308407   0.694972   -1.786239 H        1 UNL1     0.0309
     121 H         -2.854669   -5.448849   0.018121 H        1 UNL1     0.0524
     122 H         -3.305776   -4.785207   -1.557614 H        1 UNL1     0.0524
     123 H         -1.585226   -5.022982   -1.161489 H        1 UNL1     0.0524
@<TRIPOS>BOND
     1     1     2    1
     2     1    42    1
     3     2     3    2
     4     3     4    1
     5     4     5    2
     6     5     7    1
     7     6    75    1
     8     6    76    1
     9     6    77    1
    10     7     9   am
    11     9    10    1
    12    10    11    2
    13    10    43    1
    14    11    14    1
    15    11    15    1
    16    12    13   ar
    17    12    27   ar
    18    12    43    1
    19    13    14    1
    20    13    30   ar
    21    14    17    2
    22    15    16    1
    23    16    17    1
    24    16    18    1
    25    16    22    1
    26    18    19    1
    27    19    20    1
    28    20    21    1
    29    21    22    1
    30    23    24    1
    31    23    88    1
    32    23    89    1
    33    24    25    1
    34    24    26    1
    35    24    90    1
    36    25    91    1
    37    25    92    1
    38    25    93    1
    39    26    94    1
    40    26    95    1
    41    26    96    1
    42    27    28   ar
    43    28    29   ar
    44    29    30   ar
    45    29    31    1
    46    30    33    1
    47    31    32    1
    48    32    33    1
    49    32    35    1
    50    34    97    1
    51    34    98    1
    52    34    99    1
    53    35    61    1
    54    36    37    1
    55    36    60    1
    56    37    38    1
    57    38    39    1
    58    39    40    1
    59    40    41    1
    60    41    42    1
    61    45   100    1
    62    47   101    1
    63    47   102    1
    64    47   103    1
    65    48   104    1
    66    49   105    1
    67    49   106    1
    68    49   107    1
    69    50   108    1
    70    51    59    1
    71    52   109    1
    72    52   110    1
    73    52   111    1
    74    53    54    1
    75    54    55    2
    76    54    56    1
    77    56   112    1
    78    56   113    1
    79    56   114    1
    80    57   115    1
    81    57   116    1
    82    57   117    1
    83    58   118    1
    84    58   119    1
    85    58   120    1
    86    59   121    1
    87    59   122    1
    88    59   123    1
    89    60    61    2
    90     1    47    1
    91     1    62    1
    92     2    63    1
    93     3    64    1
    94     4    65    1
    95     5     6    1
    96     7     8    2
    97     9    78    1
    98    15    79    1
    99    18    80    1
   100    18    81    1
   101    19    82    1
   102    19    83    1
   103    20    23    1
   104    21    84    1
   105    21    85    1
   106    22    86    1
   107    22    87    1
   108    27    45    1
   109    28    34    1
   110    32    58    1
   111    33    46    2
   112    36    51    1
   113    36    66    1
   114    37    52    1
   115    37    67    1
   116    38    53    1
   117    38    68    1
   118    42    48    1
   119    42    72    1
   120    43    44    2
   121    60    73    1
   122    61    74    1
   123    39    69    1
   124    39    57    1
   125    40    70    1
   126    40    50    1
   127    41    71    1
   128    41    49    1
