@<TRIPOS>MOLECULE
*****
 123 128 0 0 0
SMALL
GASTEIGER

@<TRIPOS>ATOM
     1 C         -3.83598   3.510987   -0.824581 C.3        1 UNL1     0.0009
     2 C         -5.533113   3.62465   -1.562048 C.2        1 UNL1     -0.0787
     3 C         -6.430141   4.13707   -2.576352 C.2        1 UNL1     -0.0649
     4 C         -8.05834   3.742715   -2.820913 C.2        1 UNL1     -0.0542
     5 C         -9.126573   3.745767   -3.751475 C.2        1 UNL1     0.0115
     6 C         -9.57832   4.264761   -5.144276 C.3        1 UNL1     -0.0348
     7 C         -10.397467   2.803839   -3.478362 C.2        1 UNL1     0.2441
     8 O         -11.457996   3.227775   -3.04009 O.2        1 UNL1     -0.2702
     9 N         -10.298829   1.510113   -4.019373 N.am        1 UNL1     -0.2772
     10 C         -9.683917   0.662098   -3.127142 C.2        1 UNL1     0.1049
     11 C         -8.363513   0.687117   -3.11576 C.2        1 UNL1     0.0801
     12 C         -9.728979   -0.074269   -0.73694 C.ar        1 UNL1     0.0753
     13 C         -8.318829   0.170024   -0.716811 C.ar        1 UNL1     0.0305
     14 C         -7.570228   0.432899   -1.943818 C.2        1 UNL1     0.0924
     15 N         -7.502801   1.253438   -3.978884 N.pl3        1 UNL1     -0.3170
     16 C         -6.174551   0.843261   -3.607722 C.3        1 UNL1     0.1275
     17 N         -6.260831   0.581064   -2.123966 N.2        1 UNL1     -0.2557
     18 C         -5.919801   -0.510808   -4.262932 C.3        1 UNL1     0.0016
     19 C         -6.139244   -0.375042   -5.761265 C.3        1 UNL1     0.0026
     20 N         -5.22783   0.636699   -6.277727 N.3        1 UNL1     -0.3018
     21 C         -5.355157   1.959902   -5.663488 C.3        1 UNL1     0.0026
     22 C         -5.126446   1.800684   -4.159415 C.3        1 UNL1     0.0016
     23 C         -5.142434   0.632976   -7.724564 C.3        1 UNL1     0.0012
     24 C         -6.344439   -0.106312   -8.333163 C.3        1 UNL1     -0.0339
     25 C         -7.453414   0.872763   -8.752263 C.3        1 UNL1     -0.0615
     26 C         -5.890192   -0.968357   -9.498202 C.3        1 UNL1     -0.0615
     27 C         -10.414189   -0.442837   0.41838 C.ar        1 UNL1     0.1347
     28 C         -9.792772   -0.636554   1.639185 C.ar        1 UNL1     0.0342
     29 C         -8.412602   -0.342869   1.645982 C.ar        1 UNL1     0.1435
     30 C         -7.719573   0.062264   0.50458 C.ar        1 UNL1     0.0774
     31 O         -7.645361   -0.587477   2.730654 O.3        1 UNL1     -0.4436
     32 C         -6.302498   -0.623286   2.224383 C.3        1 UNL1     0.3143
     33 C         -6.342663   0.176547   0.937967 C.2        1 UNL1     0.2504
     34 C         -10.41261   -1.270439   2.853307 C.3        1 UNL1     -0.0327
     35 O         -5.480965   0.106587   3.14396 O.2        1 UNL1     -0.4528
     36 C         -2.038098   -1.479823   2.948877 C.3        1 UNL1     0.0854
     37 C         -1.099084   -1.671806   1.696312 C.3        1 UNL1     0.0236
     38 C         0.374574   -1.05985   1.856266 C.3        1 UNL1     0.1131
     39 C         0.55552   0.436114   2.337536 C.3        1 UNL1     0.0200
     40 C         -0.409953   1.646172   1.7162 C.3        1 UNL1     0.0661
     41 C         -0.708513   1.933015   0.071149 C.3        1 UNL1     0.0091
     42 C         -2.198989   2.593119   -0.770366 C.3        1 UNL1     0.0661
     43 C         -10.422482   -0.009365   -2.047321 C.2        1 UNL1     0.2131
     44 O         -11.485853   -0.55766   -2.273935 O.2        1 UNL1     -0.2851
     45 O         -11.793243   -0.617366   0.322538 O.3        1 UNL1     -0.5056
     46 O         -5.445546   0.788811   0.40302 O.2        1 UNL1     -0.2836
     47 C         -3.487294   4.821717   -0.069341 C.3        1 UNL1     -0.0566
     48 O         -1.441214   3.558755   -1.602495 O.3        1 UNL1     -0.3909
     49 C         -0.247579   0.732553   -0.725045 C.3        1 UNL1     -0.0577
     50 O         -1.611963   1.755614   2.451672 O.3        1 UNL1     -0.3910
     51 O         -1.535965   -0.652864   3.974271 O.3        1 UNL1     -0.3753
     52 C         -1.894967   -1.582461   0.353354 C.3        1 UNL1     -0.0564
     53 O         1.344237   -1.55056   0.821238 O.3        1 UNL1     -0.4608
     54 C         2.139569   -2.660237   0.939534 C.2        1 UNL1     0.3042
     55 O         3.367607   -2.708637   0.881055 O.2        1 UNL1     -0.2512
     56 C         1.374419   -3.920703   1.226733 C.3        1 UNL1     0.0332
     57 C         0.790913   0.40874   3.919312 C.3        1 UNL1     -0.0567
     58 C         -6.002825   -2.101638   1.883502 C.3        1 UNL1     0.0210
     59 C         -1.317762   0.705503   3.595994 C.3        1 UNL1     0.0372
     60 C         -3.409731   -0.992984   2.637798 C.2        1 UNL1     -0.0208
     61 C         -4.145475   -0.048073   3.224797 C.2        1 UNL1     0.0882
     62 H         -4.229129   2.813244   -0.075382 H        1 UNL1     0.0365
     63 H         -6.109927   3.048996   -0.835151 H        1 UNL1     0.0576
     64 H         -6.064962   4.735302   -3.414128 H        1 UNL1     0.0615
     65 H         -8.341175   3.221855   -1.902114 H        1 UNL1     0.0622
     66 H         -2.163253   -2.49233   3.357793 H        1 UNL1     0.0645
     67 H         -0.886764   -2.755008   1.68394 H        1 UNL1     0.0362
     68 H         0.742159   -1.68034   2.687768 H        1 UNL1     0.0741
     69 H         1.550913   0.768364   2.074455 H        1 UNL1     0.0359
     70 H         0.179663   2.533525   2.016226 H        1 UNL1     0.0600
     71 H         0.097319   2.660877   -0.1475 H        1 UNL1     0.0348
     72 H         -2.288523   2.892356   0.284033 H        1 UNL1     0.0602
     73 H         -3.841298   -1.616182   1.894412 H        1 UNL1     0.0628
     74 H         -3.762593   0.668566   3.952167 H        1 UNL1     0.1022
     75 H         -9.608524   3.428238   -5.883432 H        1 UNL1     0.0279
     76 H         -10.58576   4.669871   -5.207667 H        1 UNL1     0.0279
     77 H         -8.840962   4.936737   -5.607366 H        1 UNL1     0.0279
     78 H         -9.728304   1.534314   -4.861984 H        1 UNL1     0.1553
     79 H         -7.747568   1.521555   -4.91437 H        1 UNL1     0.1484
     80 H         -4.895846   -0.831052   -4.035498 H        1 UNL1     0.0317
     81 H         -6.586342   -1.276272   -3.851302 H        1 UNL1     0.0317
     82 H         -7.183771   -0.125101   -5.998763 H        1 UNL1     0.0428
     83 H         -5.954133   -1.352179   -6.208466 H        1 UNL1     0.0428
     84 H         -4.607203   2.678979   -6.011774 H        1 UNL1     0.0428
     85 H         -6.315561   2.433864   -5.90905 H        1 UNL1     0.0428
     86 H         -5.094628   2.799033   -3.764096 H        1 UNL1     0.0317
     87 H         -4.114433   1.421285   -3.972377 H        1 UNL1     0.0317
     88 H         -5.161193   1.674747   -8.070479 H        1 UNL1     0.0429
     89 H         -4.194901   0.197417   -8.066973 H        1 UNL1     0.0429
     90 H         -6.753819   -0.799872   -7.589123 H        1 UNL1     0.0308
     91 H         -8.352961   0.340215   -9.075233 H        1 UNL1     0.0233
     92 H         -7.709562   1.542212   -7.927742 H        1 UNL1     0.0233
     93 H         -7.148612   1.517025   -9.585844 H        1 UNL1     0.0233
     94 H         -4.944861   -0.589995   -9.90197 H        1 UNL1     0.0233
     95 H         -5.725666   -1.9956   -9.16106 H        1 UNL1     0.0233
     96 H         -6.631333   -0.975186   -10.302337 H        1 UNL1     0.0233
     97 H         -11.474086   -1.054124   2.928855 H        1 UNL1     0.0280
     98 H         -10.329396   -2.364997   2.836747 H        1 UNL1     0.0280
     99 H         -9.91701   -0.890478   3.76166 H        1 UNL1     0.0280
     100 H         -12.19529   -0.169128   -0.400693 H        1 UNL1     0.2922
     101 H         -3.056943   5.542879   -0.763876 H        1 UNL1     0.0236
     102 H         -2.849623   4.659426   0.799003 H        1 UNL1     0.0236
     103 H         -4.385682   5.320506   0.331035 H        1 UNL1     0.0236
     104 H         -1.34586   4.382475   -1.085422 H        1 UNL1     0.2098
     105 H         -1.005592   0.309868   -1.379694 H        1 UNL1     0.0234
     106 H         0.684262   0.878817   -1.271129 H        1 UNL1     0.0234
     107 H         0.0   0.0   0.0 H        1 UNL1     0.0234
     108 H         -2.025573   2.605721   2.206695 H        1 UNL1     0.2098
     109 H         -1.247158   -1.718259   -0.523922 H        1 UNL1     0.0234
     110 H         -2.733208   -2.285655   0.302224 H        1 UNL1     0.0234
     111 H         -2.365063   -0.598191   0.226203 H        1 UNL1     0.0234
     112 H         0.32353   -3.682843   1.417523 H        1 UNL1     0.0342
     113 H         1.470389   -4.65001   0.423773 H        1 UNL1     0.0342
     114 H         1.788228   -4.373062   2.138488 H        1 UNL1     0.0342
     115 H         1.723977   0.915261   4.202183 H        1 UNL1     0.0234
     116 H         -0.017148   0.862779   4.496317 H        1 UNL1     0.0234
     117 H         0.968253   -0.604061   4.320217 H        1 UNL1     0.0234
     118 H         -6.538019   -2.434823   0.977102 H        1 UNL1     0.0309
     119 H         -4.934259   -2.306963   1.764291 H        1 UNL1     0.0309
     120 H         -6.359918   -2.791793   2.655691 H        1 UNL1     0.0309
     121 H         -0.348915   0.75808   3.100083 H        1 UNL1     0.0524
     122 H         -2.076148   1.068012   2.882218 H        1 UNL1     0.0524
     123 H         -1.324919   1.345817   4.473514 H        1 UNL1     0.0524
@<TRIPOS>BOND
     1     1     2    1
     2     1    42    1
     3     2     3    2
     4     3     4    1
     5     4     5    2
     6     5     7    1
     7     6    75    1
     8     6    76    1
     9     6    77    1
    10     7     9   am
    11     9    10    1
    12    10    11    2
    13    10    43    1
    14    11    14    1
    15    11    15    1
    16    12    13   ar
    17    12    27   ar
    18    12    43    1
    19    13    14    1
    20    13    30   ar
    21    14    17    2
    22    15    16    1
    23    16    17    1
    24    16    18    1
    25    16    22    1
    26    18    19    1
    27    19    20    1
    28    20    21    1
    29    21    22    1
    30    23    24    1
    31    23    88    1
    32    23    89    1
    33    24    25    1
    34    24    26    1
    35    24    90    1
    36    25    91    1
    37    25    92    1
    38    25    93    1
    39    26    94    1
    40    26    95    1
    41    26    96    1
    42    27    28   ar
    43    28    29   ar
    44    29    30   ar
    45    29    31    1
    46    30    33    1
    47    31    32    1
    48    32    33    1
    49    32    35    1
    50    34    97    1
    51    34    98    1
    52    34    99    1
    53    35    61    1
    54    36    37    1
    55    36    60    1
    56    37    38    1
    57    38    39    1
    58    39    40    1
    59    40    41    1
    60    41    42    1
    61    45   100    1
    62    47   101    1
    63    47   102    1
    64    47   103    1
    65    48   104    1
    66    49   105    1
    67    49   106    1
    68    49   107    1
    69    50   108    1
    70    51    59    1
    71    52   109    1
    72    52   110    1
    73    52   111    1
    74    53    54    1
    75    54    55    2
    76    54    56    1
    77    56   112    1
    78    56   113    1
    79    56   114    1
    80    57   115    1
    81    57   116    1
    82    57   117    1
    83    58   118    1
    84    58   119    1
    85    58   120    1
    86    59   121    1
    87    59   122    1
    88    59   123    1
    89    60    61    2
    90     1    47    1
    91     1    62    1
    92     2    63    1
    93     3    64    1
    94     4    65    1
    95     5     6    1
    96     7     8    2
    97     9    78    1
    98    15    79    1
    99    18    80    1
   100    18    81    1
   101    19    82    1
   102    19    83    1
   103    20    23    1
   104    21    84    1
   105    21    85    1
   106    22    86    1
   107    22    87    1
   108    27    45    1
   109    28    34    1
   110    32    58    1
   111    33    46    2
   112    36    51    1
   113    36    66    1
   114    37    52    1
   115    37    67    1
   116    38    53    1
   117    38    68    1
   118    42    48    1
   119    42    72    1
   120    43    44    2
   121    60    73    1
   122    61    74    1
   123    39    69    1
   124    39    57    1
   125    40    70    1
   126    40    50    1
   127    41    71    1
   128    41    49    1
