@<TRIPOS>MOLECULE
*****
 123 128 0 0 0
SMALL
GASTEIGER

@<TRIPOS>ATOM
     1 C         3.750984   3.624099   1.090507 C.3        1 UNL1     0.0009
     2 C         4.242824   5.368333   0.699639 C.2        1 UNL1     -0.0787
     3 C         5.157217   6.307929   0.085561 C.2        1 UNL1     -0.0649
     4 C         4.988795   7.987168   -0.049146 C.2        1 UNL1     -0.0542
     5 C         5.412031   9.144063   -0.748821 C.2        1 UNL1     0.0115
     6 C         6.447911   9.684821   -1.772469 C.3        1 UNL1     -0.0348
     7 C         4.519219   10.475273   -0.660761 C.2        1 UNL1     0.2441
     8 O         4.811345   11.426557   0.05075 O.2        1 UNL1     -0.2702
     9 N         3.523899   10.583256   -1.647589 N.am        1 UNL1     -0.2772
     10 C         2.363832   9.973524   -1.228314 C.2        1 UNL1     0.1049
     11 C         2.299192   8.66553   -1.399185 C.2        1 UNL1     0.0801
     12 C         0.780393   9.838193   0.703458 C.ar        1 UNL1     0.0753
     13 C         0.909185   8.415885   0.608275 C.ar        1 UNL1     0.0305
     14 C         1.56992   7.781929   -0.5304 C.2        1 UNL1     0.0924
     15 N         3.094955   7.846624   -2.108185 N.pl3        1 UNL1     -0.3170
     16 C         2.491626   6.540391   -2.109618 C.3        1 UNL1     0.1275
     17 N         1.692297   6.491982   -0.83038 N.2        1 UNL1     -0.2557
     18 C         1.474051   6.513575   -3.246071 C.3        1 UNL1     0.0016
     19 C         2.181512   6.879751   -4.541063 C.3        1 UNL1     0.0026
     20 N         3.253775   5.922423   -4.775162 N.3        1 UNL1     -0.3018
     21 C         4.250345   5.831394   -3.706082 C.3        1 UNL1     0.0026
     22 C         3.518473   5.458078   -2.415774 C.3        1 UNL1     0.0016
     23 C         3.793681   5.997632   -6.118102 C.3        1 UNL1     0.0012
     24 C         2.774206   5.468135   -7.138916 C.3        1 UNL1     -0.0339
     25 C         1.968847   6.613015   -7.77508 C.3        1 UNL1     -0.0615
     26 C         3.478289   4.628369   -8.190505 C.3        1 UNL1     -0.0615
     27 C         0.045273   10.429352   1.728274 C.ar        1 UNL1     0.1347
     28 C         -0.635822   9.703277   2.688989 C.ar        1 UNL1     0.0342
     29 C         -0.454485   8.306472   2.604039 C.ar        1 UNL1     0.1435
     30 C         0.308617   7.701937   1.604323 C.ar        1 UNL1     0.0774
     31 O         -1.140141   7.457102   3.399938 O.3        1 UNL1     -0.4436
     32 C         -1.066024   6.19072   2.727885 C.3        1 UNL1     0.3143
     33 C         0.162757   6.281665   1.845819 C.2        1 UNL1     0.2504
     34 C         -1.642295   10.253333   3.660869 C.3        1 UNL1     -0.0327
     35 O         -0.792924   5.196004   3.722475 O.2        1 UNL1     -0.4528
     36 C         -2.400905   1.996467   2.463329 C.3        1 UNL1     0.0854
     37 C         -2.162397   1.228579   1.1065 C.3        1 UNL1     0.0236
     38 C         -1.75125   -0.313283   1.265762 C.3        1 UNL1     0.1131
     39 C         -0.564245   -0.713595   2.231701 C.3        1 UNL1     0.0200
     40 C         0.849441   0.171704   2.24497 C.3        1 UNL1     0.0661
     41 C         1.757009   0.615108   0.882134 C.3        1 UNL1     0.0091
     42 C         2.779692   2.105087   0.566718 C.3        1 UNL1     0.0661
     43 C         1.381106   10.659832   -0.376502 C.2        1 UNL1     0.2131
     44 O         1.028086   11.79668   -0.632807 O.2        1 UNL1     -0.2851
     45 O         0.007635   11.821413   1.775053 O.3        1 UNL1     -0.5056
     46 O         0.874165   5.385536   1.44996 O.2        1 UNL1     -0.2836
     47 C         4.652489   3.048899   2.215858 C.3        1 UNL1     -0.0566
     48 O         3.938823   1.339395   0.047828 O.3        1 UNL1     -0.3909
     49 C         0.921678   0.382865   -0.357132 C.3        1 UNL1     -0.0577
     50 O         0.74747   1.265481   3.134339 O.3        1 UNL1     -0.3910
     51 O         -2.058136   1.294578   3.63691 O.3        1 UNL1     -0.3753
     52 C         -1.5203   2.152146   0.020367 C.3        1 UNL1     -0.0564
     53 O         -1.872947   -1.101675   -0.00544 O.3        1 UNL1     -0.4608
     54 C         -1.253246   -2.296615   -0.262384 C.2        1 UNL1     0.3042
     55 O         -0.351084   -2.511401   -1.070969 O.2        1 UNL1     -0.2512
     56 C         -1.7322   -3.422195   0.609618 C.3        1 UNL1     0.0332
     57 C         -1.2043   -1.116922   3.640896 C.3        1 UNL1     -0.0567
     58 C         -2.32038   6.098987   1.828049 C.3        1 UNL1     0.0210
     59 C         -2.78207   1.686024   4.802481 C.3        1 UNL1     0.0372
     60 C         -1.746852   3.330289   2.554402 C.2        1 UNL1     -0.0208
     61 C         -1.050725   3.885736   3.547191 C.2        1 UNL1     0.0882
     62 H         2.847569   4.008628   1.579067 H        1 UNL1     0.0365
     63 H         3.472176   5.922918   1.239089 H        1 UNL1     0.0576
     64 H         6.004132   5.971984   -0.51692 H        1 UNL1     0.0615
     65 H         4.177373   8.224161   0.644332 H        1 UNL1     0.0622
     66 H         -3.482759   2.189266   2.484889 H        1 UNL1     0.0645
     67 H         -3.171053   1.14242   0.66633 H        1 UNL1     0.0362
     68 H         -2.662626   -0.697755   1.748565 H        1 UNL1     0.0741
     69 H         -0.220643   -1.705096   1.968503 H        1 UNL1     0.0359
     70 H         1.517543   -0.543613   2.761713 H        1 UNL1     0.0600
     71 H         2.460936   -0.238697   0.83253 H        1 UNL1     0.0348
     72 H         2.661684   2.043799   1.658337 H        1 UNL1     0.0602
     73 H         -2.012938   3.908501   1.704626 H        1 UNL1     0.0628
     74 H         -0.689232   3.346826   4.423624 H        1 UNL1     0.1022
     75 H         7.114715   8.86226   -2.127151 H        1 UNL1     0.0279
     76 H         6.048682   10.080704   -2.703576 H        1 UNL1     0.0279
     77 H         7.175567   10.373025   -1.317945 H        1 UNL1     0.0279
     78 H         3.829771   10.109793   -2.495146 H        1 UNL1     0.1553
     79 H         3.712725   8.160983   -2.83377 H        1 UNL1     0.1484
     80 H         1.027477   5.513503   -3.302587 H        1 UNL1     0.0317
     81 H         0.653422   7.212844   -3.053091 H        1 UNL1     0.0317
     82 H         2.568305   7.909173   -4.516668 H        1 UNL1     0.0428
     83 H         1.437404   6.856323   -5.337809 H        1 UNL1     0.0428
     84 H         4.998985   5.049992   -3.869665 H        1 UNL1     0.0428
     85 H         4.841682   6.753367   -3.618887 H        1 UNL1     0.0428
     86 H         4.288135   5.2706   -1.690199 H        1 UNL1     0.0317
     87 H         3.033366   4.480913   -2.529424 H        1 UNL1     0.0317
     88 H         3.999913   7.051859   -6.344747 H        1 UNL1     0.0429
     89 H         4.747271   5.459587   -6.195219 H        1 UNL1     0.0429
     90 H         2.077068   4.790499   -6.631943 H        1 UNL1     0.0308
     91 H         2.626824   7.341582   -8.25815 H        1 UNL1     0.0233
     92 H         1.261458   6.224893   -8.511674 H        1 UNL1     0.0233
     93 H         1.371639   7.163348   -7.037984 H        1 UNL1     0.0233
     94 H         2.795671   4.410356   -9.01896 H        1 UNL1     0.0233
     95 H         4.334402   5.176065   -8.594315 H        1 UNL1     0.0233
     96 H         3.830258   3.680359   -7.774136 H        1 UNL1     0.0233
     97 H         -2.074385   9.475796   4.283737 H        1 UNL1     0.0280
     98 H         -1.195543   10.979141   4.352875 H        1 UNL1     0.0280
     99 H         -2.458393   10.746257   3.107602 H        1 UNL1     0.0280
     100 H         -0.858361   12.189219   1.794848 H        1 UNL1     0.2922
     101 H         4.319997   2.044155   2.475849 H        1 UNL1     0.0236
     102 H         4.714888   3.697749   3.088832 H        1 UNL1     0.0236
     103 H         5.696837   2.921319   1.885325 H        1 UNL1     0.0236
     104 H         4.553864   1.194098   0.793203 H        1 UNL1     0.2098
     105 H         0.708847   1.281786   -0.930241 H        1 UNL1     0.0234
     106 H         1.290223   -0.405267   -1.0136 H        1 UNL1     0.0234
     107 H         0.0   -0.0   0.0 H        1 UNL1     0.0234
     108 H         0.069278   1.869354   2.774948 H        1 UNL1     0.2098
     109 H         -0.55505   2.565965   0.344031 H        1 UNL1     0.0234
     110 H         -1.400067   1.656979   -0.949219 H        1 UNL1     0.0234
     111 H         -2.156426   3.019548   -0.200774 H        1 UNL1     0.0234
     112 H         -1.184872   -4.338531   0.368568 H        1 UNL1     0.0342
     113 H         -1.648005   -3.183992   1.668869 H        1 UNL1     0.0342
     114 H         -2.794669   -3.5972   0.391219 H        1 UNL1     0.0342
     115 H         -1.909383   -1.954043   3.544589 H        1 UNL1     0.0234
     116 H         -0.469268   -1.392355   4.399786 H        1 UNL1     0.0234
     117 H         -1.857501   -0.336084   4.066997 H        1 UNL1     0.0234
     118 H         -3.207847   5.755165   2.387687 H        1 UNL1     0.0309
     119 H         -2.557595   7.041409   1.324292 H        1 UNL1     0.0309
     120 H         -2.215482   5.349699   1.035792 H        1 UNL1     0.0309
     121 H         -2.531475   2.725443   5.012639 H        1 UNL1     0.0524
     122 H         -3.873544   1.630932   4.655216 H        1 UNL1     0.0524
     123 H         -2.507673   1.056703   5.644356 H        1 UNL1     0.0524
@<TRIPOS>BOND
     1     1     2    1
     2     1    42    1
     3     2     3    2
     4     3     4    1
     5     4     5    2
     6     5     7    1
     7     6    75    1
     8     6    76    1
     9     6    77    1
    10     7     9   am
    11     9    10    1
    12    10    11    2
    13    10    43    1
    14    11    14    1
    15    11    15    1
    16    12    13   ar
    17    12    27   ar
    18    12    43    1
    19    13    14    1
    20    13    30   ar
    21    14    17    2
    22    15    16    1
    23    16    17    1
    24    16    18    1
    25    16    22    1
    26    18    19    1
    27    19    20    1
    28    20    21    1
    29    21    22    1
    30    23    24    1
    31    23    88    1
    32    23    89    1
    33    24    25    1
    34    24    26    1
    35    24    90    1
    36    25    91    1
    37    25    92    1
    38    25    93    1
    39    26    94    1
    40    26    95    1
    41    26    96    1
    42    27    28   ar
    43    28    29   ar
    44    29    30   ar
    45    29    31    1
    46    30    33    1
    47    31    32    1
    48    32    33    1
    49    32    35    1
    50    34    97    1
    51    34    98    1
    52    34    99    1
    53    35    61    1
    54    36    37    1
    55    36    60    1
    56    37    38    1
    57    38    39    1
    58    39    40    1
    59    40    41    1
    60    41    42    1
    61    45   100    1
    62    47   101    1
    63    47   102    1
    64    47   103    1
    65    48   104    1
    66    49   105    1
    67    49   106    1
    68    49   107    1
    69    50   108    1
    70    51    59    1
    71    52   109    1
    72    52   110    1
    73    52   111    1
    74    53    54    1
    75    54    55    2
    76    54    56    1
    77    56   112    1
    78    56   113    1
    79    56   114    1
    80    57   115    1
    81    57   116    1
    82    57   117    1
    83    58   118    1
    84    58   119    1
    85    58   120    1
    86    59   121    1
    87    59   122    1
    88    59   123    1
    89    60    61    2
    90     1    47    1
    91     1    62    1
    92     2    63    1
    93     3    64    1
    94     4    65    1
    95     5     6    1
    96     7     8    2
    97     9    78    1
    98    15    79    1
    99    18    80    1
   100    18    81    1
   101    19    82    1
   102    19    83    1
   103    20    23    1
   104    21    84    1
   105    21    85    1
   106    22    86    1
   107    22    87    1
   108    27    45    1
   109    28    34    1
   110    32    58    1
   111    33    46    2
   112    36    51    1
   113    36    66    1
   114    37    52    1
   115    37    67    1
   116    38    53    1
   117    38    68    1
   118    42    48    1
   119    42    72    1
   120    43    44    2
   121    60    73    1
   122    61    74    1
   123    39    69    1
   124    39    57    1
   125    40    70    1
   126    40    50    1
   127    41    71    1
   128    41    49    1
