@<TRIPOS>MOLECULE
*****
 123 128 0 0 0
SMALL
GASTEIGER

@<TRIPOS>ATOM
     1 C         -2.53505   0.20996   3.258199 C.3        1 UNL1     0.0009
     2 C         -2.329225   -0.577855   4.923738 C.2        1 UNL1     -0.0787
     3 C         -2.57391   -1.679056   5.831224 C.2        1 UNL1     -0.0649
     4 C         -1.949423   -1.902163   7.388978 C.2        1 UNL1     -0.0542
     5 C         -1.68501   -2.848841   8.409254 C.2        1 UNL1     0.0115
     6 C         -1.936482   -4.314184   8.859648 C.3        1 UNL1     -0.0348
     7 C         -0.642386   -2.469743   9.569517 C.2        1 UNL1     0.2441
     8 O         -0.990569   -2.125898   10.690706 O.2        1 UNL1     -0.2702
     9 N         0.693791   -2.809157   9.294599 N.am        1 UNL1     -0.2772
     10 C         1.320591   -1.785535   8.621812 C.2        1 UNL1     0.1049
     11 C         1.130638   -1.745439   7.315469 C.2        1 UNL1     0.0801
     12 C         1.702423   0.68591   8.680972 C.ar        1 UNL1     0.0753
     13 C         1.284826   0.704164   7.312072 C.ar        1 UNL1     0.0305
     14 C         1.111871   -0.529478   6.548354 C.2        1 UNL1     0.0924
     15 N         0.593143   -2.66187   6.492194 N.pl3        1 UNL1     -0.3170
     16 C         0.777247   -2.201029   5.141644 C.3        1 UNL1     0.1275
     17 N         0.830172   -0.697349   5.259405 N.2        1 UNL1     -0.2557
     18 C         2.169858   -2.640479   4.699808 C.3        1 UNL1     0.0016
     19 C         2.281068   -4.147256   4.869648 C.3        1 UNL1     0.0026
     20 N         1.24978   -4.786188   4.063894 N.3        1 UNL1     -0.3018
     21 C         -0.122392   -4.379491   4.373907 C.3        1 UNL1     0.0026
     22 C         -0.212564   -2.863314   4.192327 C.3        1 UNL1     0.0016
     23 C         1.452645   -6.213736   3.916942 C.3        1 UNL1     0.0012
     24 C         2.666577   -6.495499   3.017643 C.3        1 UNL1     -0.0339
     25 C         2.937498   -5.326676   2.056128 C.3        1 UNL1     -0.0615
     26 C         3.883468   -6.812115   3.869529 C.3        1 UNL1     -0.0615
     27 C         1.981663   1.866016   9.366167 C.ar        1 UNL1     0.1347
     28 C         1.917734   3.117014   8.778829 C.ar        1 UNL1     0.0342
     29 C         1.457304   3.113983   7.444978 C.ar        1 UNL1     0.1435
     30 C         1.139182   1.942375   6.756972 C.ar        1 UNL1     0.0774
     31 O         1.444987   4.2416   6.701113 O.3        1 UNL1     -0.4436
     32 C         1.387022   3.779619   5.343142 C.3        1 UNL1     0.3143
     33 C         0.793404   2.387708   5.423224 C.2        1 UNL1     0.2504
     34 C         2.440784   4.396428   9.370115 C.3        1 UNL1     -0.0327
     35 O         0.435335   4.600043   4.654341 O.2        1 UNL1     -0.4528
     36 C         1.593938   4.72874   1.041978 C.3        1 UNL1     0.0854
     37 C         1.847577   3.542369   0.034153 C.3        1 UNL1     0.0236
     38 C         1.040921   3.645576   -1.348019 C.3        1 UNL1     0.1131
     39 C         -0.519787   3.902671   -1.328926 C.3        1 UNL1     0.0200
     40 C         -1.497787   3.084187   -0.253734 C.3        1 UNL1     0.0661
     41 C         -1.503792   1.407895   0.006301 C.3        1 UNL1     0.0091
     42 C         -1.84491   0.44083   1.527428 C.3        1 UNL1     0.0661
     43 C         1.914727   -0.636203   9.320663 C.2        1 UNL1     0.2131
     44 O         2.617678   -0.804675   10.300568 O.2        1 UNL1     -0.2851
     45 O         2.337901   1.76328   10.70929 O.3        1 UNL1     -0.5056
     46 O         0.158707   1.789729   4.583322 O.2        1 UNL1     -0.2836
     47 C         -3.974455   0.769642   3.100557 C.3        1 UNL1     -0.0566
     48 O         -2.766113   -0.507056   0.85511 O.3        1 UNL1     -0.3909
     49 C         -0.267092   0.811259   -0.627806 C.3        1 UNL1     -0.0577
     50 O         -1.562806   3.765229   0.983068 O.3        1 UNL1     -0.3910
     51 O         0.571212   5.631406   0.686088 O.3        1 UNL1     -0.3753
     52 C         2.05331   2.181883   0.776918 C.3        1 UNL1     -0.0564
     53 O         1.552453   2.719549   -2.412507 O.3        1 UNL1     -0.4608
     54 C         2.517375   1.762409   -2.237181 C.2        1 UNL1     0.3042
     55 O         3.698191   1.821101   -2.577866 O.2        1 UNL1     -0.2512
     56 C         2.0346   0.551387   -1.490811 C.3        1 UNL1     0.0332
     57 C         -0.751475   5.476159   -1.498124 C.3        1 UNL1     -0.0567
     58 C         2.850483   3.670529   4.855379 C.3        1 UNL1     0.0210
     59 C         0.214938   5.619147   -0.6955 C.3        1 UNL1     0.0372
     60 C         1.331248   4.314788   2.447253 C.2        1 UNL1     -0.0208
     61 C         0.409817   4.735966   3.314617 C.2        1 UNL1     0.0882
     62 H         -1.91001   1.044912   3.597156 H        1 UNL1     0.0365
     63 H         -1.798021   0.212311   5.458463 H        1 UNL1     0.0576
     64 H         -3.084954   -2.587416   5.504386 H        1 UNL1     0.0615
     65 H         -1.53629   -0.923219   7.646802 H        1 UNL1     0.0622
     66 H         2.544069   5.280874   1.063099 H        1 UNL1     0.0645
     67 H         2.886343   3.696926   -0.305901 H        1 UNL1     0.0362
     68 H         1.483854   4.569131   -1.750981 H        1 UNL1     0.0741
     69 H         -0.931223   3.617619   -2.288026 H        1 UNL1     0.0359
     70 H         -2.485463   3.262972   -0.720201 H        1 UNL1     0.0600
     71 H         -2.286509   1.103086   -0.715781 H        1 UNL1     0.0348
     72 H         -2.280441   1.436275   1.696892 H        1 UNL1     0.0602
     73 H         2.104312   3.662242   2.769439 H        1 UNL1     0.0628
     74 H         -0.446611   5.357544   3.051161 H        1 UNL1     0.1022
     75 H         -3.017443   -4.575458   8.758192 H        1 UNL1     0.0279
     76 H         -1.451538   -5.091793   8.273796 H        1 UNL1     0.0279
     77 H         -1.778339   -4.460667   9.938182 H        1 UNL1     0.0279
     78 H         0.721467   -3.631618   8.695542 H        1 UNL1     0.1553
     79 H         0.495957   -3.632632   6.726947 H        1 UNL1     0.1484
     80 H         2.324259   -2.342635   3.655674 H        1 UNL1     0.0317
     81 H         2.944228   -2.135863   5.287485 H        1 UNL1     0.0317
     82 H         2.19969   -4.445071   5.925393 H        1 UNL1     0.0428
     83 H         3.282144   -4.439021   4.550635 H        1 UNL1     0.0428
     84 H         -0.870509   -4.812565   3.702655 H        1 UNL1     0.0428
     85 H         -0.432939   -4.716613   5.372519 H        1 UNL1     0.0428
     86 H         -1.25384   -2.620647   4.296461 H        1 UNL1     0.0317
     87 H         0.007244   -2.596874   3.151274 H        1 UNL1     0.0317
     88 H         1.649255   -6.634932   4.911544 H        1 UNL1     0.0429
     89 H         0.551137   -6.706998   3.531262 H        1 UNL1     0.0429
     90 H         2.472928   -7.397454   2.425031 H        1 UNL1     0.0308
     91 H         3.973342   -4.982316   2.130596 H        1 UNL1     0.0233
     92 H         2.730186   -5.619396   1.024166 H        1 UNL1     0.0233
     93 H         2.298393   -4.459568   2.262293 H        1 UNL1     0.0233
     94 H         4.304527   -7.781354   3.581221 H        1 UNL1     0.0233
     95 H         4.654101   -6.051178   3.717666 H        1 UNL1     0.0233
     96 H         3.628047   -6.848656   4.932258 H        1 UNL1     0.0233
     97 H         3.023217   4.221323   10.269748 H        1 UNL1     0.0280
     98 H         3.107375   4.92934   8.679523 H        1 UNL1     0.0280
     99 H         1.596188   5.056085   9.628196 H        1 UNL1     0.0280
     100 H         1.764219   1.225681   11.226493 H        1 UNL1     0.2922
     101 H         -3.960254   1.854596   3.202191 H        1 UNL1     0.0236
     102 H         -4.691486   0.304899   3.776474 H        1 UNL1     0.0236
     103 H         -4.381084   0.588372   2.091603 H        1 UNL1     0.0236
     104 H         -3.486926   -0.712692   1.482098 H        1 UNL1     0.2098
     105 H         -0.420755   0.419659   -1.630227 H        1 UNL1     0.0234
     106 H         0.612299   1.454723   -0.604295 H        1 UNL1     0.0234
     107 H         0.0   0.0   0.0 H        1 UNL1     0.0234
     108 H         -2.080637   3.207091   1.594706 H        1 UNL1     0.2098
     109 H         1.127048   1.818433   1.243453 H        1 UNL1     0.0234
     110 H         2.471318   1.399572   0.134266 H        1 UNL1     0.0234
     111 H         2.781683   2.272804   1.593712 H        1 UNL1     0.0234
     112 H         2.855601   -0.16137   -1.367197 H        1 UNL1     0.0342
     113 H         1.594792   0.811387   -0.529139 H        1 UNL1     0.0342
     114 H         1.254625   0.065529   -2.093093 H        1 UNL1     0.0342
     115 H         0.068916   6.059446   -1.057757 H        1 UNL1     0.0234
     116 H         -0.864475   5.799298   -2.534879 H        1 UNL1     0.0234
     117 H         -1.614958   5.857653   -0.926458 H        1 UNL1     0.0234
     118 H         3.244936   2.644034   4.95397 H        1 UNL1     0.0309
     119 H         2.985599   4.008519   3.823047 H        1 UNL1     0.0309
     120 H         3.541331   4.265944   5.462269 H        1 UNL1     0.0309
     121 H         -0.197087   6.598217   -0.938427 H        1 UNL1     0.0524
     122 H         1.0863   5.453786   -1.350803 H        1 UNL1     0.0524
     123 H         -0.522105   4.844359   -0.886719 H        1 UNL1     0.0524
@<TRIPOS>BOND
     1     1     2    1
     2     1    42    1
     3     2     3    2
     4     3     4    1
     5     4     5    2
     6     5     7    1
     7     6    75    1
     8     6    76    1
     9     6    77    1
    10     7     9   am
    11     9    10    1
    12    10    11    2
    13    10    43    1
    14    11    14    1
    15    11    15    1
    16    12    13   ar
    17    12    27   ar
    18    12    43    1
    19    13    14    1
    20    13    30   ar
    21    14    17    2
    22    15    16    1
    23    16    17    1
    24    16    18    1
    25    16    22    1
    26    18    19    1
    27    19    20    1
    28    20    21    1
    29    21    22    1
    30    23    24    1
    31    23    88    1
    32    23    89    1
    33    24    25    1
    34    24    26    1
    35    24    90    1
    36    25    91    1
    37    25    92    1
    38    25    93    1
    39    26    94    1
    40    26    95    1
    41    26    96    1
    42    27    28   ar
    43    28    29   ar
    44    29    30   ar
    45    29    31    1
    46    30    33    1
    47    31    32    1
    48    32    33    1
    49    32    35    1
    50    34    97    1
    51    34    98    1
    52    34    99    1
    53    35    61    1
    54    36    37    1
    55    36    60    1
    56    37    38    1
    57    38    39    1
    58    39    40    1
    59    40    41    1
    60    41    42    1
    61    45   100    1
    62    47   101    1
    63    47   102    1
    64    47   103    1
    65    48   104    1
    66    49   105    1
    67    49   106    1
    68    49   107    1
    69    50   108    1
    70    51    59    1
    71    52   109    1
    72    52   110    1
    73    52   111    1
    74    53    54    1
    75    54    55    2
    76    54    56    1
    77    56   112    1
    78    56   113    1
    79    56   114    1
    80    57   115    1
    81    57   116    1
    82    57   117    1
    83    58   118    1
    84    58   119    1
    85    58   120    1
    86    59   121    1
    87    59   122    1
    88    59   123    1
    89    60    61    2
    90     1    47    1
    91     1    62    1
    92     2    63    1
    93     3    64    1
    94     4    65    1
    95     5     6    1
    96     7     8    2
    97     9    78    1
    98    15    79    1
    99    18    80    1
   100    18    81    1
   101    19    82    1
   102    19    83    1
   103    20    23    1
   104    21    84    1
   105    21    85    1
   106    22    86    1
   107    22    87    1
   108    27    45    1
   109    28    34    1
   110    32    58    1
   111    33    46    2
   112    36    51    1
   113    36    66    1
   114    37    52    1
   115    37    67    1
   116    38    53    1
   117    38    68    1
   118    42    48    1
   119    42    72    1
   120    43    44    2
   121    60    73    1
   122    61    74    1
   123    39    69    1
   124    39    57    1
   125    40    70    1
   126    40    50    1
   127    41    71    1
   128    41    49    1
