@<TRIPOS>MOLECULE
*****
 123 128 0 0 0
SMALL
GASTEIGER

@<TRIPOS>ATOM
     1 C         -1.316494   -2.586233   -4.383472 C.3        1 UNL1     0.0009
     2 C         -0.657372   -3.495317   -5.858654 C.2        1 UNL1     -0.0787
     3 C         -0.147562   -3.488387   -7.213679 C.2        1 UNL1     -0.0649
     4 C         0.476719   -4.790655   -8.097267 C.2        1 UNL1     -0.0542
     5 C         1.281907   -5.165109   -9.20114 C.2        1 UNL1     0.0115
     6 C         2.017544   -4.627858   -10.45952 C.3        1 UNL1     -0.0348
     7 C         1.847131   -6.665702   -9.276849 C.2        1 UNL1     0.2441
     8 O         1.359891   -7.524653   -9.998878 O.2        1 UNL1     -0.2702
     9 N         3.095136   -6.856878   -8.658718 N.am        1 UNL1     -0.2772
     10 C         2.929877   -7.160229   -7.326806 C.2        1 UNL1     0.1049
     11 C         2.757566   -6.134261   -6.513221 C.2        1 UNL1     0.0801
     12 C         1.656504   -8.653534   -5.77571 C.ar        1 UNL1     0.0753
     13 C         1.322125   -7.472663   -5.039271 C.ar        1 UNL1     0.0305
     14 C         1.971335   -6.192092   -5.310776 C.2        1 UNL1     0.0924
     15 N         2.923739   -4.818975   -6.734434 N.pl3        1 UNL1     -0.3170
     16 C         2.773483   -4.139191   -5.475239 C.3        1 UNL1     0.1275
     17 N         1.860105   -5.031524   -4.670748 N.2        1 UNL1     -0.2557
     18 C         4.128579   -4.179031   -4.775361 C.3        1 UNL1     0.0016
     19 C         5.170783   -3.567832   -5.698311 C.3        1 UNL1     0.0026
     20 N         4.779237   -2.198895   -6.004467 N.3        1 UNL1     -0.3018
     21 C         3.460715   -2.053298   -6.624686 C.3        1 UNL1     0.0026
     22 C         2.428804   -2.669704   -5.678589 C.3        1 UNL1     0.0016
     23 C         5.841976   -1.433931   -6.625804 C.3        1 UNL1     0.0012
     24 C         6.443772   -2.209753   -7.808046 C.3        1 UNL1     -0.0339
     25 C         7.950374   -1.937907   -7.95055 C.3        1 UNL1     -0.0615
     26 C         6.155146   -3.693352   -7.658348 C.3        1 UNL1     -0.0615
     27 C         1.123404   -9.89362   -5.43204 C.ar        1 UNL1     0.1347
     28 C         0.280044   -10.083277   -4.351844 C.ar        1 UNL1     0.0342
     29 C         -0.073926   -8.89893   -3.671263 C.ar        1 UNL1     0.1435
     30 C         0.423732   -7.644571   -4.026427 C.ar        1 UNL1     0.0774
     31 O         -0.799106   -8.930721   -2.531916 O.3        1 UNL1     -0.4436
     32 C         -0.550782   -7.661668   -1.908448 C.3        1 UNL1     0.3143
     33 C         -0.126181   -6.742674   -3.036002 C.2        1 UNL1     0.2504
     34 C         -0.127664   -11.409835   -3.773815 C.3        1 UNL1     -0.0327
     35 O         -1.806962   -7.172797   -1.422374 O.2        1 UNL1     -0.4528
     36 C         -0.993437   -5.064677   1.627559 C.3        1 UNL1     0.0854
     37 C         -0.044562   -3.810584   1.747596 C.3        1 UNL1     0.0236
     38 C         -0.733525   -2.497843   2.358975 C.3        1 UNL1     0.1131
     39 C         -2.10282   -1.978752   1.760774 C.3        1 UNL1     0.0200
     40 C         -2.339141   -1.929538   0.110269 C.3        1 UNL1     0.0661
     41 C         -1.279938   -1.246682   -1.025252 C.3        1 UNL1     0.0091
     42 C         -0.92975   -1.721962   -2.762169 C.3        1 UNL1     0.0661
     43 C         2.659664   -8.528973   -6.862179 C.2        1 UNL1     0.2131
     44 O         3.309882   -9.466065   -7.288575 O.2        1 UNL1     -0.2851
     45 O         1.463977   -10.985239   -6.228165 O.3        1 UNL1     -0.5056
     46 O         -0.237229   -5.539308   -3.109704 O.2        1 UNL1     -0.2836
     47 C         -2.784086   -2.145837   -4.632885 C.3        1 UNL1     -0.0566
     48 O         -1.040142   -0.3379   -3.283034 O.3        1 UNL1     -0.3909
     49 C         0.054414   -0.995945   -0.35882 C.3        1 UNL1     -0.0577
     50 O         -2.821538   -3.17048   -0.364154 O.3        1 UNL1     -0.3910
     51 O         -2.356693   -4.834341   1.903077 O.3        1 UNL1     -0.3753
     52 C         0.977879   -3.739435   0.566705 C.3        1 UNL1     -0.0564
     53 O         0.249428   -1.447593   2.786885 O.3        1 UNL1     -0.4608
     54 C         -0.001852   -0.440984   3.682165 C.2        1 UNL1     0.3042
     55 O         -0.228643   0.742062   3.431555 O.2        1 UNL1     -0.2512
     56 C         -0.047529   -0.904044   5.110521 C.3        1 UNL1     0.0332
     57 C         -3.28047   -2.573659   2.664878 C.3        1 UNL1     -0.0567
     58 C         0.649407   -7.86979   -0.955683 C.3        1 UNL1     0.0210
     59 C         -3.086866   -5.986871   2.320672 C.3        1 UNL1     0.0372
     60 C         -0.933668   -5.775732   0.321424 C.2        1 UNL1     -0.0208
     61 C         -1.913012   -6.242308   -0.454422 C.2        1 UNL1     0.0882
     62 H         -1.363325   -3.538515   -3.841554 H        1 UNL1     0.0365
     63 H         -0.748289   -4.528897   -5.518188 H        1 UNL1     0.0576
     64 H         0.033954   -2.555574   -7.752213 H        1 UNL1     0.0615
     65 H         0.174737   -5.667345   -7.517867 H        1 UNL1     0.0622
     66 H         -0.609565   -5.773746   2.374493 H        1 UNL1     0.0645
     67 H         0.660107   -4.083614   2.552243 H        1 UNL1     0.0362
     68 H         -0.97736   -2.869983   3.365741 H        1 UNL1     0.0741
     69 H         -2.23993   -0.94557   2.050849 H        1 UNL1     0.0359
     70 H         -3.215917   -1.255663   0.063187 H        1 UNL1     0.0600
     71 H         -1.691427   -0.219742   -1.080276 H        1 UNL1     0.0348
     72 H         -1.898068   -2.179219   -2.511985 H        1 UNL1     0.0602
     73 H         0.07791   -6.004639   0.094357 H        1 UNL1     0.0628
     74 H         -2.969358   -6.005067   -0.32371 H        1 UNL1     0.1022
     75 H         2.226273   -5.458518   -11.176089 H        1 UNL1     0.0279
     76 H         1.469609   -3.918795   -11.076016 H        1 UNL1     0.0279
     77 H         3.034386   -4.271896   -10.238106 H        1 UNL1     0.0279
     78 H         3.638455   -5.997791   -8.712108 H        1 UNL1     0.1553
     79 H         3.464722   -4.445689   -7.492674 H        1 UNL1     0.1484
     80 H         4.058827   -3.628218   -3.829578 H        1 UNL1     0.0317
     81 H         4.406807   -5.207051   -4.519595 H        1 UNL1     0.0317
     82 H         5.29695   -4.158451   -6.617638 H        1 UNL1     0.0428
     83 H         6.129576   -3.607997   -5.180475 H        1 UNL1     0.0428
     84 H         3.157369   -1.011958   -6.770981 H        1 UNL1     0.0428
     85 H         3.43472   -2.483283   -7.635504 H        1 UNL1     0.0428
     86 H         1.470092   -2.427963   -6.098614 H        1 UNL1     0.0317
     87 H         2.42953   -2.132777   -4.722135 H        1 UNL1     0.0317
     88 H         5.412129   -0.497512   -7.00481 H        1 UNL1     0.0429
     89 H         6.61552   -1.160757   -5.896572 H        1 UNL1     0.0429
     90 H         5.943882   -1.899221   -8.733191 H        1 UNL1     0.0308
     91 H         8.45914   -2.001336   -6.983991 H        1 UNL1     0.0233
     92 H         8.40722   -2.648246   -8.643602 H        1 UNL1     0.0233
     93 H         8.158253   -0.939715   -8.354571 H        1 UNL1     0.0233
     94 H         6.874087   -4.278741   -8.241682 H        1 UNL1     0.0233
     95 H         6.251654   -3.988835   -6.609855 H        1 UNL1     0.0233
     96 H         5.147308   -3.940618   -8.003442 H        1 UNL1     0.0233
     97 H         -0.911254   -11.884726   -4.35665 H        1 UNL1     0.0280
     98 H         0.705125   -12.124814   -3.750957 H        1 UNL1     0.0280
     99 H         -0.500211   -11.265885   -2.746399 H        1 UNL1     0.0280
     100 H         2.368116   -11.241018   -6.175902 H        1 UNL1     0.2922
     101 H         -3.461654   -2.791752   -4.074896 H        1 UNL1     0.0236
     102 H         -3.043241   -2.097133   -5.68998 H        1 UNL1     0.0236
     103 H         -2.983346   -1.131877   -4.247694 H        1 UNL1     0.0236
     104 H         -0.96918   0.270375   -2.521498 H        1 UNL1     0.2098
     105 H         0.261881   -1.644139   0.488891 H        1 UNL1     0.0234
     106 H         0.906513   -0.978115   -1.038184 H        1 UNL1     0.0234
     107 H         0.0   0.0   0.0 H        1 UNL1     0.0234
     108 H         -3.008396   -3.064056   -1.316796 H        1 UNL1     0.2098
     109 H         0.514392   -3.981212   -0.399957 H        1 UNL1     0.0234
     110 H         1.488119   -2.772732   0.496834 H        1 UNL1     0.0234
     111 H         1.794286   -4.46276   0.694088 H        1 UNL1     0.0234
     112 H         -0.271915   -0.059148   5.76866 H        1 UNL1     0.0342
     113 H         -0.761696   -1.713126   5.256109 H        1 UNL1     0.0342
     114 H         0.947088   -1.285569   5.379484 H        1 UNL1     0.0342
     115 H         -4.252134   -2.523998   2.154398 H        1 UNL1     0.0234
     116 H         -3.123847   -3.609392   2.972734 H        1 UNL1     0.0234
     117 H         -3.484609   -1.976437   3.570192 H        1 UNL1     0.0234
     118 H         0.325926   -8.109026   0.072487 H        1 UNL1     0.0309
     119 H         1.343636   -8.642191   -1.301581 H        1 UNL1     0.0309
     120 H         1.246841   -6.960553   -0.827366 H        1 UNL1     0.0309
     121 H         -4.133246   -5.82547   2.063002 H        1 UNL1     0.0524
     122 H         -2.755018   -6.902477   1.803391 H        1 UNL1     0.0524
     123 H         -2.982526   -6.129934   3.392465 H        1 UNL1     0.0524
@<TRIPOS>BOND
     1     1     2    1
     2     1    42    1
     3     2     3    2
     4     3     4    1
     5     4     5    2
     6     5     7    1
     7     6    75    1
     8     6    76    1
     9     6    77    1
    10     7     9   am
    11     9    10    1
    12    10    11    2
    13    10    43    1
    14    11    14    1
    15    11    15    1
    16    12    13   ar
    17    12    27   ar
    18    12    43    1
    19    13    14    1
    20    13    30   ar
    21    14    17    2
    22    15    16    1
    23    16    17    1
    24    16    18    1
    25    16    22    1
    26    18    19    1
    27    19    20    1
    28    20    21    1
    29    21    22    1
    30    23    24    1
    31    23    88    1
    32    23    89    1
    33    24    25    1
    34    24    26    1
    35    24    90    1
    36    25    91    1
    37    25    92    1
    38    25    93    1
    39    26    94    1
    40    26    95    1
    41    26    96    1
    42    27    28   ar
    43    28    29   ar
    44    29    30   ar
    45    29    31    1
    46    30    33    1
    47    31    32    1
    48    32    33    1
    49    32    35    1
    50    34    97    1
    51    34    98    1
    52    34    99    1
    53    35    61    1
    54    36    37    1
    55    36    60    1
    56    37    38    1
    57    38    39    1
    58    39    40    1
    59    40    41    1
    60    41    42    1
    61    45   100    1
    62    47   101    1
    63    47   102    1
    64    47   103    1
    65    48   104    1
    66    49   105    1
    67    49   106    1
    68    49   107    1
    69    50   108    1
    70    51    59    1
    71    52   109    1
    72    52   110    1
    73    52   111    1
    74    53    54    1
    75    54    55    2
    76    54    56    1
    77    56   112    1
    78    56   113    1
    79    56   114    1
    80    57   115    1
    81    57   116    1
    82    57   117    1
    83    58   118    1
    84    58   119    1
    85    58   120    1
    86    59   121    1
    87    59   122    1
    88    59   123    1
    89    60    61    2
    90     1    47    1
    91     1    62    1
    92     2    63    1
    93     3    64    1
    94     4    65    1
    95     5     6    1
    96     7     8    2
    97     9    78    1
    98    15    79    1
    99    18    80    1
   100    18    81    1
   101    19    82    1
   102    19    83    1
   103    20    23    1
   104    21    84    1
   105    21    85    1
   106    22    86    1
   107    22    87    1
   108    27    45    1
   109    28    34    1
   110    32    58    1
   111    33    46    2
   112    36    51    1
   113    36    66    1
   114    37    52    1
   115    37    67    1
   116    38    53    1
   117    38    68    1
   118    42    48    1
   119    42    72    1
   120    43    44    2
   121    60    73    1
   122    61    74    1
   123    39    69    1
   124    39    57    1
   125    40    70    1
   126    40    50    1
   127    41    71    1
   128    41    49    1
