@<TRIPOS>MOLECULE
*****
 123 128 0 0 0
SMALL
GASTEIGER

@<TRIPOS>ATOM
     1 C         5.035594   2.05882   0.644882 C.3        1 UNL1     0.0009
     2 C         6.420728   3.001609   -0.148585 C.2        1 UNL1     -0.0787
     3 C         7.716131   3.02459   -0.794689 C.2        1 UNL1     -0.0649
     4 C         8.510263   4.349855   -1.487065 C.2        1 UNL1     -0.0542
     5 C         9.519512   4.753658   -2.395601 C.2        1 UNL1     0.0115
     6 C         10.703942   4.247718   -3.264205 C.3        1 UNL1     -0.0348
     7 C         9.513088   6.262554   -2.943487 C.2        1 UNL1     0.2441
     8 O         10.267743   7.127373   -2.520273 O.2        1 UNL1     -0.2702
     9 N         8.767047   6.459298   -4.11859 N.am        1 UNL1     -0.2772
     10 C         7.454556   6.737548   -3.813195 C.2        1 UNL1     0.1049
     11 C         6.679249   5.6956   -3.573474 C.2        1 UNL1     0.0801
     12 C         6.019195   8.187297   -2.365679 C.ar        1 UNL1     0.0753
     13 C         5.33971   6.9897   -1.974949 C.ar        1 UNL1     0.0305
     14 C         5.563204   5.722534   -2.667331 C.2        1 UNL1     0.0924
     15 N         6.902908   4.38658   -3.78077 N.pl3        1 UNL1     -0.3170
     16 C         5.676686   3.683368   -3.512207 C.3        1 UNL1     0.1275
     17 N         4.956357   4.549793   -2.508137 N.2        1 UNL1     -0.2557
     18 C         4.84072   3.7288   -4.787667 C.3        1 UNL1     0.0016
     19 C         5.661199   3.147153   -5.927883 C.3        1 UNL1     0.0026
     20 N         6.027498   1.778702   -5.589959 N.3        1 UNL1     -0.3018
     21 C         6.782143   1.626645   -4.344263 C.3        1 UNL1     0.0026
     22 C         5.937504   2.213233   -3.211835 C.3        1 UNL1     0.0016
     23 C         6.548309   1.038411   -6.721935 C.3        1 UNL1     0.0012
     24 C         5.429418   0.742975   -7.73315 C.3        1 UNL1     -0.0339
     25 C         5.634727   1.522185   -9.042629 C.3        1 UNL1     -0.0615
     26 C         5.333486   -0.752301   -7.981601 C.3        1 UNL1     -0.0615
     27 C         5.712633   9.414258   -1.78198 C.ar        1 UNL1     0.1347
     28 C         4.721968   9.574345   -0.829612 C.ar        1 UNL1     0.0342
     29 C         4.100107   8.373977   -0.425174 C.ar        1 UNL1     0.1435
     30 C         4.421968   7.132484   -0.975011 C.ar        1 UNL1     0.0774
     31 O         3.040955   8.376756   0.413393 O.3        1 UNL1     -0.4436
     32 C         2.415339   7.100516   0.211675 C.3        1 UNL1     0.3143
     33 C         3.507627   6.206628   -0.339763 C.2        1 UNL1     0.2504
     34 C         4.16807   10.885362   -0.345327 C.3        1 UNL1     -0.0327
     35 O         2.068688   6.58707   1.50375 O.2        1 UNL1     -0.4528
     36 C         -1.015107   4.437623   0.976329 C.3        1 UNL1     0.0854
     37 C         -1.212245   3.1941   0.026429 C.3        1 UNL1     0.0236
     38 C         -1.728832   1.8622   0.755075 C.3        1 UNL1     0.1131
     39 C         -0.984983   1.335698   2.048038 C.3        1 UNL1     0.0200
     40 C         0.681639   1.311776   2.113132 C.3        1 UNL1     0.0661
     41 C         1.712918   0.662363   0.93316 C.3        1 UNL1     0.0091
     42 C         3.396949   1.171927   0.41375 C.3        1 UNL1     0.0661
     43 C         6.998651   8.094478   -3.476674 C.2        1 UNL1     0.2131
     44 O         7.341157   9.047134   -4.153338 O.2        1 UNL1     -0.2851
     45 O         6.45225   10.52373   -2.186302 O.3        1 UNL1     -0.5056
     46 O         3.611299   5.003364   -0.254561 O.2        1 UNL1     -0.2836
     47 C         5.441406   1.603724   2.072533 C.3        1 UNL1     -0.0566
     48 O         3.94814   -0.204302   0.449796 O.3        1 UNL1     -0.3909
     49 C         0.916927   0.41759   -0.329369 C.3        1 UNL1     -0.0577
     50 O         1.183514   2.554307   2.562533 O.3        1 UNL1     -0.3910
     51 O         -1.145412   4.184877   2.357116 O.3        1 UNL1     -0.3753
     52 C         -0.1417   3.156554   -1.112638 C.3        1 UNL1     -0.0564
     53 O         -2.238887   0.817628   -0.194155 O.3        1 UNL1     -0.4608
     54 C         -2.377414   -0.5157   0.090412 C.2        1 UNL1     0.3042
     55 O         -1.683396   -1.443686   -0.323132 O.2        1 UNL1     -0.2512
     56 C         -3.482073   -0.811103   1.064671 C.3        1 UNL1     0.0332
     57 C         -1.772542   1.899618   3.320799 C.3        1 UNL1     -0.0567
     58 C         1.341124   7.307832   -0.881308 C.3        1 UNL1     0.0210
     59 C         -2.333908   4.704022   2.951953 C.3        1 UNL1     0.0372
     60 C         0.266607   5.171729   0.793413 C.2        1 UNL1     -0.0208
     61 C         1.131538   5.638789   1.694797 C.2        1 UNL1     0.0882
     62 H         4.486423   3.000963   0.761026 H        1 UNL1     0.0365
     63 H         6.075167   4.027917   -0.008054 H        1 UNL1     0.0576
     64 H         8.247789   2.103606   -1.044161 H        1 UNL1     0.0615
     65 H         7.951224   5.21246   -1.114412 H        1 UNL1     0.0622
     66 H         -1.808611   5.138688   0.681531 H        1 UNL1     0.0645
     67 H         -2.089246   3.462409   -0.587932 H        1 UNL1     0.0362
     68 H         -2.710948   2.213787   1.106296 H        1 UNL1     0.0741
     69 H         -1.243121   0.295989   2.198963 H        1 UNL1     0.0359
     70 H         0.82918   0.627464   2.970458 H        1 UNL1     0.0600
     71 H         1.826107   -0.368746   1.321696 H        1 UNL1     0.0348
     72 H         3.240424   1.612186   1.409234 H        1 UNL1     0.0602
     73 H         0.384886   5.417641   -0.232641 H        1 UNL1     0.0628
     74 H         1.113823   5.385619   2.755377 H        1 UNL1     0.1022
     75 H         11.506901   3.816283   -2.619104 H        1 UNL1     0.0279
     76 H         10.488999   3.430321   -3.948845 H        1 UNL1     0.0279
     77 H         11.243684   5.064907   -3.764786 H        1 UNL1     0.0279
     78 H         8.777849   5.608394   -4.67709 H        1 UNL1     0.1553
     79 H         7.607327   4.033443   -4.402076 H        1 UNL1     0.1484
     80 H         3.915907   3.160959   -4.629414 H        1 UNL1     0.0317
     81 H         4.541554   4.755805   -5.023061 H        1 UNL1     0.0317
     82 H         6.553275   3.75507   -6.13895 H        1 UNL1     0.0428
     83 H         5.047009   3.190883   -6.827833 H        1 UNL1     0.0428
     84 H         6.975223   0.584114   -4.072858 H        1 UNL1     0.0428
     85 H         7.783382   2.073557   -4.415729 H        1 UNL1     0.0428
     86 H         6.457581   1.966294   -2.304901 H        1 UNL1     0.0317
     87 H         4.994616   1.660008   -3.122382 H        1 UNL1     0.0317
     88 H         7.309548   1.657792   -7.21405 H        1 UNL1     0.0429
     89 H         7.0449   0.114152   -6.399575 H        1 UNL1     0.0429
     90 H         4.466323   1.036902   -7.299251 H        1 UNL1     0.0308
     91 H         6.670004   1.451358   -9.389456 H        1 UNL1     0.0233
     92 H         4.968523   1.147823   -9.82342 H        1 UNL1     0.0233
     93 H         5.408185   2.589686   -8.93329 H        1 UNL1     0.0233
     94 H         4.843513   -0.944907   -8.942156 H        1 UNL1     0.0233
     95 H         6.335085   -1.189631   -8.020391 H        1 UNL1     0.0233
     96 H         4.760545   -1.251539   -7.195174 H        1 UNL1     0.0233
     97 H         3.097163   10.960542   -0.508837 H        1 UNL1     0.0280
     98 H         4.317917   11.024791   0.733265 H        1 UNL1     0.0280
     99 H         4.658569   11.713985   -0.881881 H        1 UNL1     0.0280
     100 H         5.935604   11.275373   -2.418105 H        1 UNL1     0.2922
     101 H         4.637395   1.01451   2.513043 H        1 UNL1     0.0236
     102 H         5.743239   2.429416   2.71605 H        1 UNL1     0.0236
     103 H         6.310761   0.92531   2.059481 H        1 UNL1     0.0236
     104 H         4.284305   -0.363822   1.353409 H        1 UNL1     0.2098
     105 H         0.688408   1.315851   -0.897452 H        1 UNL1     0.0234
     106 H         1.327896   -0.349818   -0.985202 H        1 UNL1     0.0234
     107 H         0.0   -0.0   0.0 H        1 UNL1     0.0234
     108 H         1.084504   3.19003   1.827807 H        1 UNL1     0.2098
     109 H         -0.189217   4.045075   -1.757606 H        1 UNL1     0.0234
     110 H         0.880025   3.029221   -0.738996 H        1 UNL1     0.0234
     111 H         -0.290325   2.296862   -1.779561 H        1 UNL1     0.0234
     112 H         -4.057919   -1.676617   0.723158 H        1 UNL1     0.0342
     113 H         -3.10654   -0.965684   2.075078 H        1 UNL1     0.0342
     114 H         -4.158139   0.05462   1.08964 H        1 UNL1     0.0342
     115 H         -2.846137   1.671401   3.270819 H        1 UNL1     0.0234
     116 H         -1.400831   1.522703   4.275689 H        1 UNL1     0.0234
     117 H         -1.791217   3.001794   3.373726 H        1 UNL1     0.0234
     118 H         0.317014   7.229715   -0.476213 H        1 UNL1     0.0309
     119 H         1.445157   8.260215   -1.410785 H        1 UNL1     0.0309
     120 H         1.368484   6.528543   -1.650767 H        1 UNL1     0.0309
     121 H         -2.128638   4.868476   4.009391 H        1 UNL1     0.0524
     122 H         -2.630773   5.672823   2.516829 H        1 UNL1     0.0524
     123 H         -3.152011   3.999095   2.834141 H        1 UNL1     0.0524
@<TRIPOS>BOND
     1     1     2    1
     2     1    42    1
     3     2     3    2
     4     3     4    1
     5     4     5    2
     6     5     7    1
     7     6    75    1
     8     6    76    1
     9     6    77    1
    10     7     9   am
    11     9    10    1
    12    10    11    2
    13    10    43    1
    14    11    14    1
    15    11    15    1
    16    12    13   ar
    17    12    27   ar
    18    12    43    1
    19    13    14    1
    20    13    30   ar
    21    14    17    2
    22    15    16    1
    23    16    17    1
    24    16    18    1
    25    16    22    1
    26    18    19    1
    27    19    20    1
    28    20    21    1
    29    21    22    1
    30    23    24    1
    31    23    88    1
    32    23    89    1
    33    24    25    1
    34    24    26    1
    35    24    90    1
    36    25    91    1
    37    25    92    1
    38    25    93    1
    39    26    94    1
    40    26    95    1
    41    26    96    1
    42    27    28   ar
    43    28    29   ar
    44    29    30   ar
    45    29    31    1
    46    30    33    1
    47    31    32    1
    48    32    33    1
    49    32    35    1
    50    34    97    1
    51    34    98    1
    52    34    99    1
    53    35    61    1
    54    36    37    1
    55    36    60    1
    56    37    38    1
    57    38    39    1
    58    39    40    1
    59    40    41    1
    60    41    42    1
    61    45   100    1
    62    47   101    1
    63    47   102    1
    64    47   103    1
    65    48   104    1
    66    49   105    1
    67    49   106    1
    68    49   107    1
    69    50   108    1
    70    51    59    1
    71    52   109    1
    72    52   110    1
    73    52   111    1
    74    53    54    1
    75    54    55    2
    76    54    56    1
    77    56   112    1
    78    56   113    1
    79    56   114    1
    80    57   115    1
    81    57   116    1
    82    57   117    1
    83    58   118    1
    84    58   119    1
    85    58   120    1
    86    59   121    1
    87    59   122    1
    88    59   123    1
    89    60    61    2
    90     1    47    1
    91     1    62    1
    92     2    63    1
    93     3    64    1
    94     4    65    1
    95     5     6    1
    96     7     8    2
    97     9    78    1
    98    15    79    1
    99    18    80    1
   100    18    81    1
   101    19    82    1
   102    19    83    1
   103    20    23    1
   104    21    84    1
   105    21    85    1
   106    22    86    1
   107    22    87    1
   108    27    45    1
   109    28    34    1
   110    32    58    1
   111    33    46    2
   112    36    51    1
   113    36    66    1
   114    37    52    1
   115    37    67    1
   116    38    53    1
   117    38    68    1
   118    42    48    1
   119    42    72    1
   120    43    44    2
   121    60    73    1
   122    61    74    1
   123    39    69    1
   124    39    57    1
   125    40    70    1
   126    40    50    1
   127    41    71    1
   128    41    49    1
