@<TRIPOS>MOLECULE
*****
 123 128 0 0 0
SMALL
GASTEIGER

@<TRIPOS>ATOM
     1 C         5.080877   1.921575   0.701077 C.3        1 UNL1     0.0009
     2 C         6.517032   2.790758   -0.085699 C.2        1 UNL1     -0.0787
     3 C         7.82432   2.748014   -0.706357 C.2        1 UNL1     -0.0649
     4 C         8.68328   4.024767   -1.412365 C.2        1 UNL1     -0.0542
     5 C         9.72474   4.367582   -2.309536 C.2        1 UNL1     0.0115
     6 C         10.904422   3.795659   -3.142949 C.3        1 UNL1     -0.0348
     7 C         9.788455   5.862479   -2.891096 C.2        1 UNL1     0.2441
     8 O         10.568631   6.706644   -2.472483 O.2        1 UNL1     -0.2702
     9 N         9.073159   6.061028   -4.084863 N.am        1 UNL1     -0.2772
     10 C         7.767176   6.39747   -3.811847 C.2        1 UNL1     0.1049
     11 C         6.94681   5.39252   -3.564263 C.2        1 UNL1     0.0801
     12 C         6.363236   7.935459   -2.42589 C.ar        1 UNL1     0.0753
     13 C         5.629578   6.774765   -2.021981 C.ar        1 UNL1     0.0305
     14 C         5.815764   5.484124   -2.681247 C.2        1 UNL1     0.0924
     15 N         7.122325   4.071295   -3.73772 N.pl3        1 UNL1     -0.3170
     16 C         5.86435   3.42306   -3.477829 C.3        1 UNL1     0.1275
     17 N         5.160038   4.340054   -2.507886 N.2        1 UNL1     -0.2557
     18 C         5.055121   3.471651   -4.770304 C.3        1 UNL1     0.0016
     19 C         5.873342   2.832065   -5.880724 C.3        1 UNL1     0.0026
     20 N         6.178691   1.458509   -5.505046 N.3        1 UNL1     -0.3018
     21 C         6.903018   1.305899   -4.241547 C.3        1 UNL1     0.0026
     22 C         6.061002   1.951187   -3.1395 C.3        1 UNL1     0.0016
     23 C         6.691094   0.672372   -6.609616 C.3        1 UNL1     0.0012
     24 C         5.580711   0.397649   -7.635936 C.3        1 UNL1     -0.0339
     25 C         5.611594   1.419007   -8.784819 C.3        1 UNL1     -0.0615
     26 C         5.688813   -1.026928   -8.151373 C.3        1 UNL1     -0.0615
     27 C         6.094526   9.186674   -1.876004 C.ar        1 UNL1     0.1347
     28 C         5.093138   9.407453   -0.94728 C.ar        1 UNL1     0.0342
     29 C         4.416679   8.242052   -0.528465 C.ar        1 UNL1     0.1435
     30 C         4.699457   6.976505   -1.043875 C.ar        1 UNL1     0.0774
     31 O         3.342792   8.305732   0.288675 O.3        1 UNL1     -0.4436
     32 C         2.671044   7.050647   0.10323 C.3        1 UNL1     0.3143
     33 C         3.737306   6.102132   -0.406297 C.2        1 UNL1     0.2504
     34 C         4.582541   10.750023   -0.503549 C.3        1 UNL1     -0.0327
     35 O         2.279944   6.581233   1.399356 O.2        1 UNL1     -0.4528
     36 C         -0.876039   4.542586   0.859193 C.3        1 UNL1     0.0854
     37 C         -1.104271   3.286074   -0.06634 C.3        1 UNL1     0.0236
     38 C         -1.686902   1.992662   0.681569 C.3        1 UNL1     0.1131
     39 C         -0.989087   1.467512   2.000486 C.3        1 UNL1     0.0200
     40 C         0.673749   1.379843   2.099116 C.3        1 UNL1     0.0661
     41 C         1.700636   0.663383   0.954651 C.3        1 UNL1     0.0091
     42 C         3.413055   1.09443   0.457436 C.3        1 UNL1     0.0661
     43 C         7.359092   7.778644   -3.514899 C.2        1 UNL1     0.2131
     44 O         7.751804   8.701228   -4.205807 O.2        1 UNL1     -0.2851
     45 O         6.885026   10.256665   -2.290334 O.3        1 UNL1     -0.5056
     46 O         3.791605   4.898026   -0.292132 O.2        1 UNL1     -0.2836
     47 C         5.441261   1.484117   2.146323 C.3        1 UNL1     -0.0566
     48 O         3.90852   -0.301127   0.535209 O.3        1 UNL1     -0.3909
     49 C         0.919603   0.420804   -0.317606 C.3        1 UNL1     -0.0577
     50 O         1.215854   2.611837   2.530435 O.3        1 UNL1     -0.3910
     51 O         -1.042354   4.327181   2.24244 O.3        1 UNL1     -0.3753
     52 C         -0.014694   3.180257   -1.182842 C.3        1 UNL1     -0.0564
     53 O         -2.219882   0.947167   -0.253952 O.3        1 UNL1     -0.4608
     54 C         -2.407005   -0.374856   0.054547 C.2        1 UNL1     0.3042
     55 O         -1.784184   -1.34006   -0.386263 O.2        1 UNL1     -0.2512
     56 C         -3.467042   -0.605727   1.09365 C.3        1 UNL1     0.0332
     57 C         -1.77763   2.09117   3.244442 C.3        1 UNL1     -0.0567
     58 C         1.626755   7.274512   -1.015196 C.3        1 UNL1     0.0210
     59 C         -1.453898   5.475475   2.982655 C.3        1 UNL1     0.0372
     60 C         0.436978   5.221493   0.685319 C.2        1 UNL1     -0.0208
     61 C         1.302521   5.675065   1.592982 C.2        1 UNL1     0.0882
     62 H         4.567356   2.886941   0.785186 H        1 UNL1     0.0365
     63 H         6.209797   3.832793   0.024938 H        1 UNL1     0.0576
     64 H         8.323706   1.801383   -0.924556 H        1 UNL1     0.0615
     65 H         8.151897   4.917006   -1.070274 H        1 UNL1     0.0622
     66 H         -1.635432   5.267178   0.533102 H        1 UNL1     0.0645
     67 H         -1.958175   3.574228   -0.703815 H        1 UNL1     0.0362
     68 H         -2.66079   2.390486   1.005296 H        1 UNL1     0.0741
     69 H         -1.291014   0.442486   2.169512 H        1 UNL1     0.0359
     70 H         0.777822   0.710314   2.974307 H        1 UNL1     0.0600
     71 H         1.765523   -0.362093   1.368348 H        1 UNL1     0.0348
     72 H         3.255285   1.563417   1.439513 H        1 UNL1     0.0602
     73 H         0.584296   5.438755   -0.343439 H        1 UNL1     0.0628
     74 H         1.25473   5.447411   2.658405 H        1 UNL1     0.1022
     75 H         10.982882   2.690395   -3.004132 H        1 UNL1     0.0279
     76 H         10.826072   3.891054   -4.223611 H        1 UNL1     0.0279
     77 H         11.885821   4.130426   -2.776224 H        1 UNL1     0.0279
     78 H         9.060813   5.197648   -4.623845 H        1 UNL1     0.1553
     79 H         7.823833   3.676545   -4.33688 H        1 UNL1     0.1484
     80 H         4.105713   2.944287   -4.617732 H        1 UNL1     0.0317
     81 H         4.801376   4.503859   -5.03452 H        1 UNL1     0.0317
     82 H         6.792632   3.399523   -6.087632 H        1 UNL1     0.0428
     83 H         5.278504   2.878965   -6.793422 H        1 UNL1     0.0428
     84 H         7.049482   0.263171   -3.94309 H        1 UNL1     0.0428
     85 H         7.922346   1.711476   -4.303147 H        1 UNL1     0.0428
     86 H         6.553637   1.705137   -2.217134 H        1 UNL1     0.0317
     87 H         5.095418   1.437539   -3.056383 H        1 UNL1     0.0317
     88 H         7.485443   1.249898   -7.100296 H        1 UNL1     0.0429
     89 H         7.144498   -0.262916   -6.25686 H        1 UNL1     0.0429
     90 H         4.60646   0.462566   -7.137104 H        1 UNL1     0.0308
     91 H         6.581129   1.418065   -9.291873 H        1 UNL1     0.0233
     92 H         4.825792   1.205098   -9.513082 H        1 UNL1     0.0233
     93 H         5.435435   2.444143   -8.437113 H        1 UNL1     0.0233
     94 H         5.027546   -1.167983   -9.013153 H        1 UNL1     0.0233
     95 H         6.713246   -1.230199   -8.475686 H        1 UNL1     0.0233
     96 H         5.411976   -1.752105   -7.381017 H        1 UNL1     0.0233
     97 H         3.76585   10.660965   0.206603 H        1 UNL1     0.0280
     98 H         5.357371   11.340979   0.002084 H        1 UNL1     0.0280
     99 H         4.219912   11.314436   -1.37821 H        1 UNL1     0.0280
     100 H         6.40322   10.995032   -2.619422 H        1 UNL1     0.2922
     101 H         4.57717   1.012664   2.614014 H        1 UNL1     0.0236
     102 H         5.842289   2.295775   2.752433 H        1 UNL1     0.0236
     103 H         6.225237   0.708643   2.160946 H        1 UNL1     0.0236
     104 H         4.301171   -0.425762   1.421359 H        1 UNL1     0.2098
     105 H         0.695397   1.320349   -0.885375 H        1 UNL1     0.0234
     106 H         1.339817   -0.343519   -0.971178 H        1 UNL1     0.0234
     107 H         0.0   -0.0   0.0 H        1 UNL1     0.0234
     108 H         1.018559   3.273332   1.83959 H        1 UNL1     0.2098
     109 H         0.999471   3.097025   -0.767808 H        1 UNL1     0.0234
     110 H         -0.193335   2.356084   -1.88182 H        1 UNL1     0.0234
     111 H         -0.001979   4.073243   -1.821872 H        1 UNL1     0.0234
     112 H         -3.562128   -1.676739   1.296717 H        1 UNL1     0.0342
     113 H         -3.270612   -0.050338   2.009511 H        1 UNL1     0.0342
     114 H         -4.426026   -0.253098   0.689709 H        1 UNL1     0.0342
     115 H         -2.832705   1.784726   3.254374 H        1 UNL1     0.0234
     116 H         -1.351238   1.831883   4.215528 H        1 UNL1     0.0234
     117 H         -1.875157   3.189458   3.197616 H        1 UNL1     0.0234
     118 H         0.694882   7.723013   -0.628588 H        1 UNL1     0.0309
     119 H         2.004559   7.888112   -1.839187 H        1 UNL1     0.0309
     120 H         1.286939   6.336139   -1.466955 H        1 UNL1     0.0309
     121 H         -0.671665   6.227873   2.88588 H        1 UNL1     0.0524
     122 H         -2.386591   5.913925   2.590376 H        1 UNL1     0.0524
     123 H         -1.598138   5.217025   4.027879 H        1 UNL1     0.0524
@<TRIPOS>BOND
     1     1     2    1
     2     1    42    1
     3     2     3    2
     4     3     4    1
     5     4     5    2
     6     5     7    1
     7     6    75    1
     8     6    76    1
     9     6    77    1
    10     7     9   am
    11     9    10    1
    12    10    11    2
    13    10    43    1
    14    11    14    1
    15    11    15    1
    16    12    13   ar
    17    12    27   ar
    18    12    43    1
    19    13    14    1
    20    13    30   ar
    21    14    17    2
    22    15    16    1
    23    16    17    1
    24    16    18    1
    25    16    22    1
    26    18    19    1
    27    19    20    1
    28    20    21    1
    29    21    22    1
    30    23    24    1
    31    23    88    1
    32    23    89    1
    33    24    25    1
    34    24    26    1
    35    24    90    1
    36    25    91    1
    37    25    92    1
    38    25    93    1
    39    26    94    1
    40    26    95    1
    41    26    96    1
    42    27    28   ar
    43    28    29   ar
    44    29    30   ar
    45    29    31    1
    46    30    33    1
    47    31    32    1
    48    32    33    1
    49    32    35    1
    50    34    97    1
    51    34    98    1
    52    34    99    1
    53    35    61    1
    54    36    37    1
    55    36    60    1
    56    37    38    1
    57    38    39    1
    58    39    40    1
    59    40    41    1
    60    41    42    1
    61    45   100    1
    62    47   101    1
    63    47   102    1
    64    47   103    1
    65    48   104    1
    66    49   105    1
    67    49   106    1
    68    49   107    1
    69    50   108    1
    70    51    59    1
    71    52   109    1
    72    52   110    1
    73    52   111    1
    74    53    54    1
    75    54    55    2
    76    54    56    1
    77    56   112    1
    78    56   113    1
    79    56   114    1
    80    57   115    1
    81    57   116    1
    82    57   117    1
    83    58   118    1
    84    58   119    1
    85    58   120    1
    86    59   121    1
    87    59   122    1
    88    59   123    1
    89    60    61    2
    90     1    47    1
    91     1    62    1
    92     2    63    1
    93     3    64    1
    94     4    65    1
    95     5     6    1
    96     7     8    2
    97     9    78    1
    98    15    79    1
    99    18    80    1
   100    18    81    1
   101    19    82    1
   102    19    83    1
   103    20    23    1
   104    21    84    1
   105    21    85    1
   106    22    86    1
   107    22    87    1
   108    27    45    1
   109    28    34    1
   110    32    58    1
   111    33    46    2
   112    36    51    1
   113    36    66    1
   114    37    52    1
   115    37    67    1
   116    38    53    1
   117    38    68    1
   118    42    48    1
   119    42    72    1
   120    43    44    2
   121    60    73    1
   122    61    74    1
   123    39    69    1
   124    39    57    1
   125    40    70    1
   126    40    50    1
   127    41    71    1
   128    41    49    1
