@<TRIPOS>MOLECULE
*****
 123 128 0 0 0
SMALL
GASTEIGER

@<TRIPOS>ATOM
     1 C         2.676965   -2.24671   4.192627 C.3        1 UNL1     0.0009
     2 C         2.53922   -3.417785   5.623238 C.2        1 UNL1     -0.0787
     3 C         2.443751   -3.653981   7.04842 C.2        1 UNL1     -0.0649
     4 C         2.196376   -5.127432   7.844727 C.2        1 UNL1     -0.0542
     5 C         1.77361   -5.738684   9.050844 C.2        1 UNL1     0.0115
     6 C         1.396686   -5.465848   10.533009 C.3        1 UNL1     -0.0348
     7 C         1.36326   -7.290549   9.033039 C.2        1 UNL1     0.2441
     8 O         2.09856   -8.178019   9.44323 O.2        1 UNL1     -0.2702
     9 N         0.006866   -7.537997   8.758967 N.am        1 UNL1     -0.2772
     10 C         -0.198698   -7.636231   7.401979 C.2        1 UNL1     0.1049
     11 C         -0.342785   -6.496141   6.751091 C.2        1 UNL1     0.0801
     12 C         0.675339   -8.748179   5.338738 C.ar        1 UNL1     0.0753
     13 C         0.697186   -7.447534   4.7417 C.ar        1 UNL1     0.0305
     14 C         0.064312   -6.299022   5.386249 C.2        1 UNL1     0.0924
     15 N         -0.531559   -5.251101   7.220949 N.pl3        1 UNL1     -0.3170
     16 C         -0.800753   -4.393547   6.097388 C.3        1 UNL1     0.1275
     17 N         -0.097542   -5.057127   4.93856 N.2        1 UNL1     -0.2557
     18 C         -2.293836   -4.493264   5.799964 C.3        1 UNL1     0.0016
     19 C         -3.065673   -4.137251   7.060564 C.3        1 UNL1     0.0026
     20 N         -2.701314   -2.78687   7.46645 N.3        1 UNL1     -0.3018
     21 C         -1.273739   -2.576451   7.715692 C.3        1 UNL1     0.0026
     22 C         -0.518047   -2.93562   6.435137 C.3        1 UNL1     0.0016
     23 C         -3.590944   -2.240864   8.471975 C.3        1 UNL1     0.0012
     24 C         -4.84197   -3.121162   8.619507 C.3        1 UNL1     -0.0339
     25 C         -5.689723   -2.695357   9.829491 C.3        1 UNL1     -0.0615
     26 C         -5.650538   -3.096671   7.334051 C.3        1 UNL1     -0.0615
     27 C         1.173612   -9.860378   4.664309 C.ar        1 UNL1     0.1347
     28 C         1.680016   -9.803049   3.378106 C.ar        1 UNL1     0.0342
     29 C         1.736465   -8.504333   2.829185 C.ar        1 UNL1     0.1435
     30 C         1.274326   -7.37558   3.507097 C.ar        1 UNL1     0.0774
     31 O         2.101659   -8.297196   1.545154 O.3        1 UNL1     -0.4436
     32 C         1.59359   -6.992135   1.229632 C.3        1 UNL1     0.3143
     33 C         1.448464   -6.290104   2.564661 C.2        1 UNL1     0.2504
     34 C         1.997027   -10.982855   2.501943 C.3        1 UNL1     -0.0327
     35 O         2.617293   -6.300536   0.503702 O.2        1 UNL1     -0.4528
     36 C         0.808209   -3.904563   -1.81893 C.3        1 UNL1     0.0854
     37 C         -0.222026   -2.763265   -1.467396 C.3        1 UNL1     0.0236
     38 C         0.165037   -1.30912   -2.021824 C.3        1 UNL1     0.1131
     39 C         1.608   -0.722349   -1.746459 C.3        1 UNL1     0.0200
     40 C         2.307202   -0.871385   -0.239361 C.3        1 UNL1     0.0661
     41 C         1.57546   -0.475745   1.239028 C.3        1 UNL1     0.0091
     42 C         1.777261   -1.220065   2.90356 C.3        1 UNL1     0.0661
     43 C         0.022855   -8.888787   6.664163 C.2        1 UNL1     0.2131
     44 O         -0.407567   -9.943661   7.093948 O.2        1 UNL1     -0.2851
     45 O         1.156722   -11.082035   5.334167 O.3        1 UNL1     -0.5056
     46 O         1.489696   -5.103252   2.800324 O.2        1 UNL1     -0.2836
     47 C         4.118568   -1.678607   4.097644 C.3        1 UNL1     -0.0566
     48 O         1.934207   0.08366   3.592607 O.3        1 UNL1     -0.3909
     49 C         0.091063   -0.291701   1.015006 C.3        1 UNL1     -0.0577
     50 O         2.993626   -2.101595   -0.124789 O.3        1 UNL1     -0.3910
     51 O         2.013491   -3.483711   -2.416936 O.3        1 UNL1     -0.3753
     52 C         -0.861799   -2.971497   -0.055915 C.3        1 UNL1     -0.0564
     53 O         -0.972146   -0.330421   -1.985921 O.3        1 UNL1     -0.4608
     54 C         -1.729809   0.048012   -3.063262 C.2        1 UNL1     0.3042
     55 O         -2.017923   1.193328   -3.408342 O.2        1 UNL1     -0.2512
     56 C         -2.185902   -1.104334   -3.912257 C.3        1 UNL1     0.0332
     57 C         2.51342   -1.049326   -3.023751 C.3        1 UNL1     -0.0567
     58 C         0.18732   -7.205219   0.622566 C.3        1 UNL1     0.0210
     59 C         2.823161   -2.637152   -1.602297 C.3        1 UNL1     0.0372
     60 C         1.179591   -4.788875   -0.680849 C.2        1 UNL1     -0.0208
     61 C         2.372156   -5.241005   -0.290836 C.2        1 UNL1     0.0882
     62 H         2.633137   -3.104624   3.510884 H        1 UNL1     0.0365
     63 H         2.601527   -4.378045   5.107013 H        1 UNL1     0.0576
     64 H         2.35942   -2.830247   7.76078 H        1 UNL1     0.0615
     65 H         2.379879   -5.876532   7.069706 H        1 UNL1     0.0622
     66 H         0.276555   -4.54476   -2.53694 H        1 UNL1     0.0645
     67 H         -1.107796   -3.003418   -2.080826 H        1 UNL1     0.0362
     68 H         0.133397   -1.510262   -3.103519 H        1 UNL1     0.0741
     69 H         1.581127   0.349546   -1.890431 H        1 UNL1     0.0359
     70 H         3.109603   -0.113913   -0.32567 H        1 UNL1     0.0600
     71 H         1.910724   0.57458   1.34567 H        1 UNL1     0.0348
     72 H         2.662034   -1.524653   2.325875 H        1 UNL1     0.0602
     73 H         0.295923   -5.161302   -0.225133 H        1 UNL1     0.0628
     74 H         3.325819   -4.868345   -0.666188 H        1 UNL1     0.1022
     75 H         1.27127   -6.426271   11.088789 H        1 UNL1     0.0279
     76 H         2.137427   -4.942672   11.133557 H        1 UNL1     0.0279
     77 H         0.397259   -5.019909   10.64249 H        1 UNL1     0.0279
     78 H         -0.557823   -6.762371   9.098979 H        1 UNL1     0.1553
     79 H         -0.855511   -5.049164   8.148963 H        1 UNL1     0.1484
     80 H         -2.540055   -3.814526   4.97446 H        1 UNL1     0.0317
     81 H         -2.559838   -5.502013   5.466316 H        1 UNL1     0.0317
     82 H         -2.878109   -4.858043   7.870003 H        1 UNL1     0.0428
     83 H         -4.127786   -4.216509   6.826716 H        1 UNL1     0.0428
     84 H         -1.016358   -1.536808   7.94088 H        1 UNL1     0.0428
     85 H         -0.92596   -3.134139   8.596232 H        1 UNL1     0.0428
     86 H         0.501294   -2.644708   6.609211 H        1 UNL1     0.0317
     87 H         -0.833638   -2.277195   5.616617 H        1 UNL1     0.0317
     88 H         -3.056525   -2.229505   9.430913 H        1 UNL1     0.0429
     89 H         -3.862323   -1.202324   8.242712 H        1 UNL1     0.0429
     90 H         -4.533016   -4.163873   8.759199 H        1 UNL1     0.0308
     91 H         -5.104492   -2.720043   10.753611 H        1 UNL1     0.0233
     92 H         -6.09045   -1.689225   9.685532 H        1 UNL1     0.0233
     93 H         -6.555811   -3.350266   9.983834 H        1 UNL1     0.0233
     94 H         -5.345225   -2.248406   6.711903 H        1 UNL1     0.0233
     95 H         -5.474299   -4.013322   6.764268 H        1 UNL1     0.0233
     96 H         -6.721334   -3.008062   7.537798 H        1 UNL1     0.0233
     97 H         3.031723   -10.979276   2.172367 H        1 UNL1     0.0280
     98 H         1.851346   -11.937338   3.024431 H        1 UNL1     0.0280
     99 H         1.350074   -10.964289   1.60964 H        1 UNL1     0.0280
     100 H         0.297382   -11.395293   5.555588 H        1 UNL1     0.2922
     101 H         4.840291   -2.475735   4.27473 H        1 UNL1     0.0236
     102 H         4.285948   -0.822816   4.750782 H        1 UNL1     0.0236
     103 H         4.352292   -1.309318   3.085126 H        1 UNL1     0.0236
     104 H         2.724919   0.520784   3.220223 H        1 UNL1     0.2098
     105 H         -0.499649   -1.193306   1.156356 H        1 UNL1     0.0234
     106 H         -0.352358   0.540101   1.56219 H        1 UNL1     0.0234
     107 H         0.0   0.0   0.0 H        1 UNL1     0.0234
     108 H         3.922649   -1.896029   0.095275 H        1 UNL1     0.2098
     109 H         -1.78497   -3.565982   -0.101242 H        1 UNL1     0.0234
     110 H         -0.172224   -3.420121   0.667249 H        1 UNL1     0.0234
     111 H         -1.145929   -2.015924   0.404624 H        1 UNL1     0.0234
     112 H         -2.182822   -2.02565   -3.321908 H        1 UNL1     0.0342
     113 H         -3.165649   -0.925865   -4.352811 H        1 UNL1     0.0342
     114 H         -1.468661   -1.229226   -4.735137 H        1 UNL1     0.0342
     115 H         2.409259   -2.09607   -3.34103 H        1 UNL1     0.0234
     116 H         2.301361   -0.420721   -3.890894 H        1 UNL1     0.0234
     117 H         3.596796   -0.99505   -2.820547 H        1 UNL1     0.0234
     118 H         -0.258166   -6.259814   0.266535 H        1 UNL1     0.0309
     119 H         0.177559   -7.935226   -0.19303 H        1 UNL1     0.0309
     120 H         -0.538783   -7.564636   1.359926 H        1 UNL1     0.0309
     121 H         3.819525   -2.610665   -2.042655 H        1 UNL1     0.0524
     122 H         2.446244   -1.601288   -1.571363 H        1 UNL1     0.0524
     123 H         2.871481   -3.025181   -0.588792 H        1 UNL1     0.0524
@<TRIPOS>BOND
     1     1     2    1
     2     1    42    1
     3     2     3    2
     4     3     4    1
     5     4     5    2
     6     5     7    1
     7     6    75    1
     8     6    76    1
     9     6    77    1
    10     7     9   am
    11     9    10    1
    12    10    11    2
    13    10    43    1
    14    11    14    1
    15    11    15    1
    16    12    13   ar
    17    12    27   ar
    18    12    43    1
    19    13    14    1
    20    13    30   ar
    21    14    17    2
    22    15    16    1
    23    16    17    1
    24    16    18    1
    25    16    22    1
    26    18    19    1
    27    19    20    1
    28    20    21    1
    29    21    22    1
    30    23    24    1
    31    23    88    1
    32    23    89    1
    33    24    25    1
    34    24    26    1
    35    24    90    1
    36    25    91    1
    37    25    92    1
    38    25    93    1
    39    26    94    1
    40    26    95    1
    41    26    96    1
    42    27    28   ar
    43    28    29   ar
    44    29    30   ar
    45    29    31    1
    46    30    33    1
    47    31    32    1
    48    32    33    1
    49    32    35    1
    50    34    97    1
    51    34    98    1
    52    34    99    1
    53    35    61    1
    54    36    37    1
    55    36    60    1
    56    37    38    1
    57    38    39    1
    58    39    40    1
    59    40    41    1
    60    41    42    1
    61    45   100    1
    62    47   101    1
    63    47   102    1
    64    47   103    1
    65    48   104    1
    66    49   105    1
    67    49   106    1
    68    49   107    1
    69    50   108    1
    70    51    59    1
    71    52   109    1
    72    52   110    1
    73    52   111    1
    74    53    54    1
    75    54    55    2
    76    54    56    1
    77    56   112    1
    78    56   113    1
    79    56   114    1
    80    57   115    1
    81    57   116    1
    82    57   117    1
    83    58   118    1
    84    58   119    1
    85    58   120    1
    86    59   121    1
    87    59   122    1
    88    59   123    1
    89    60    61    2
    90     1    47    1
    91     1    62    1
    92     2    63    1
    93     3    64    1
    94     4    65    1
    95     5     6    1
    96     7     8    2
    97     9    78    1
    98    15    79    1
    99    18    80    1
   100    18    81    1
   101    19    82    1
   102    19    83    1
   103    20    23    1
   104    21    84    1
   105    21    85    1
   106    22    86    1
   107    22    87    1
   108    27    45    1
   109    28    34    1
   110    32    58    1
   111    33    46    2
   112    36    51    1
   113    36    66    1
   114    37    52    1
   115    37    67    1
   116    38    53    1
   117    38    68    1
   118    42    48    1
   119    42    72    1
   120    43    44    2
   121    60    73    1
   122    61    74    1
   123    39    69    1
   124    39    57    1
   125    40    70    1
   126    40    50    1
   127    41    71    1
   128    41    49    1
