@<TRIPOS>MOLECULE
*****
 123 128 0 0 0
SMALL
GASTEIGER

@<TRIPOS>ATOM
     1 C         4.508951   3.022631   0.551792 C.3        1 UNL1     0.0009
     2 C         5.572387   4.312368   -0.249904 C.2        1 UNL1     -0.0787
     3 C         6.791789   4.686781   -0.934683 C.2        1 UNL1     -0.0649
     4 C         7.190119   6.190324   -1.603299 C.2        1 UNL1     -0.0542
     5 C         8.024888   6.865484   -2.527636 C.2        1 UNL1     0.0115
     6 C         9.26458   6.706408   -3.45023 C.3        1 UNL1     -0.0348
     7 C         7.608686   8.33548   -3.020462 C.2        1 UNL1     0.2441
     8 O         8.131271   9.354399   -2.590073 O.2        1 UNL1     -0.2702
     9 N         6.791575   8.36394   -4.163996 N.am        1 UNL1     -0.2772
     10 C         5.464737   8.285084   -3.808183 C.2        1 UNL1     0.1049
     11 C         4.993859   7.072077   -3.58211 C.2        1 UNL1     0.0801
     12 C         3.762525   9.275173   -2.265609 C.ar        1 UNL1     0.0753
     13 C         3.430167   7.932611   -1.89727 C.ar        1 UNL1     0.0305
     14 C         3.94499   6.785295   -2.641363 C.2        1 UNL1     0.0924
     15 N         5.538672   5.87143   -3.843176 N.pl3        1 UNL1     -0.3170
     16 C         4.546363   4.868146   -3.562114 C.3        1 UNL1     0.1275
     17 N         3.667268   5.491702   -2.50566 N.2        1 UNL1     -0.2557
     18 C         3.677444   4.729923   -4.808539 C.3        1 UNL1     0.0016
     19 C         4.574565   4.410889   -5.993858 C.3        1 UNL1     0.0026
     20 N         5.293815   3.175173   -5.716884 N.3        1 UNL1     -0.3018
     21 C         6.110502   3.190204   -4.501497 C.3        1 UNL1     0.0026
     22 C         5.188476   3.50797   -3.323029 C.3        1 UNL1     0.0016
     23 C         5.942779   2.625242   -6.890368 C.3        1 UNL1     0.0012
     24 C         7.340961   3.237475   -7.069293 C.3        1 UNL1     -0.0339
     25 C         7.703354   3.386981   -8.556027 C.3        1 UNL1     -0.0615
     26 C         7.425611   4.565401   -6.337018 C.3        1 UNL1     -0.0615
     27 C         3.173583   10.36509   -1.628941 C.ar        1 UNL1     0.1347
     28 C         2.213301   10.238069   -0.641127 C.ar        1 UNL1     0.0342
     29 C         1.937831   8.907366   -0.260985 C.ar        1 UNL1     0.1435
     30 C         2.546616   7.806467   -0.864826 C.ar        1 UNL1     0.0774
     31 O         0.947456   8.613775   0.609629 O.3        1 UNL1     -0.4436
     32 C         0.664082   7.225029   0.381688 C.3        1 UNL1     0.3143
     33 C         1.927151   6.659045   -0.235183 C.2        1 UNL1     0.2504
     34 C         1.360012   11.347852   -0.093059 C.3        1 UNL1     -0.0327
     35 O         0.512341   6.605084   1.664613 O.2        1 UNL1     -0.4528
     36 C         -1.932365   3.74622   1.156289 C.3        1 UNL1     0.0854
     37 C         -1.839862   2.519847   0.168881 C.3        1 UNL1     0.0236
     38 C         -1.967092   1.080694   0.864867 C.3        1 UNL1     0.1131
     39 C         -1.062569   0.730098   2.114344 C.3        1 UNL1     0.0200
     40 C         0.555256   1.136212   2.126746 C.3        1 UNL1     0.0661
     41 C         1.671788   0.807311   0.892733 C.3        1 UNL1     0.0091
     42 C         3.146111   1.748684   0.339929 C.3        1 UNL1     0.0661
     43 C         4.688434   9.468488   -3.409104 C.2        1 UNL1     0.2131
     44 O         4.747271   10.495032   -4.061394 O.2        1 UNL1     -0.2851
     45 O         3.586152   11.638469   -2.015892 O.3        1 UNL1     -0.5056
     46 O         2.340381   5.521678   -0.196552 O.2        1 UNL1     -0.2836
     47 C         5.074009   2.64998   1.948868 C.3        1 UNL1     -0.0566
     48 O         4.034016   0.561332   0.309343 O.3        1 UNL1     -0.3909
     49 C         0.916688   0.398851   -0.352449 C.3        1 UNL1     -0.0577
     50 O         0.737567   2.453795   2.60472 O.3        1 UNL1     -0.3910
     51 O         -1.93886   3.431585   2.530477 O.3        1 UNL1     -0.3753
     52 C         -0.841341   2.790837   -1.003496 C.3        1 UNL1     -0.0564
     53 O         -2.227903   -0.034501   -0.105001 O.3        1 UNL1     -0.4608
     54 C         -2.045676   -1.36862   0.149654 C.2        1 UNL1     0.3042
     55 O         -1.113727   -2.079793   -0.223899 O.2        1 UNL1     -0.2512
     56 C         -3.104746   -1.96213   1.034431 C.3        1 UNL1     0.0332
     57 C         -1.918136   1.036987   3.430398 C.3        1 UNL1     -0.0567
     58 C         -0.469374   7.176645   -0.669247 C.3        1 UNL1     0.0210
     59 C         -3.196632   3.609673   3.180215 C.3        1 UNL1     0.0372
     60 C         -0.891068   4.791397   0.960164 C.2        1 UNL1     -0.0208
     61 C         -0.140823   5.441974   1.850459 C.2        1 UNL1     0.0882
     62 H         3.740732   3.787277   0.718728 H        1 UNL1     0.0365
     63 H         4.980042   5.210285   -0.061906 H        1 UNL1     0.0576
     64 H         7.532413   3.941599   -1.233491 H        1 UNL1     0.0615
     65 H         6.442928   6.868764   -1.182695 H        1 UNL1     0.0622
     66 H         -2.890561   4.225875   0.911669 H        1 UNL1     0.0645
     67 H         -2.779811   2.568568   -0.407905 H        1 UNL1     0.0362
     68 H         -2.992037   1.156858   1.258831 H        1 UNL1     0.0741
     69 H         -1.038189   -0.344647   2.235739 H        1 UNL1     0.0359
     70 H         0.907566   0.490675   2.953922 H        1 UNL1     0.0600
     71 H         2.0618   -0.16946   1.240249 H        1 UNL1     0.0348
     72 H         2.920746   2.106742   1.354976 H        1 UNL1     0.0602
     73 H         -0.88049   5.086847   -0.059565 H        1 UNL1     0.0628
     74 H         -0.051082   5.164597   2.901291 H        1 UNL1     0.1022
     75 H         10.205447   6.723175   -2.848963 H        1 UNL1     0.0279
     76 H         9.349154   5.766726   -3.991447 H        1 UNL1     0.0279
     77 H         9.415318   7.571214   -4.112868 H        1 UNL1     0.0279
     78 H         6.999136   7.560001   -4.75279 H        1 UNL1     0.1553
     79 H         6.285293   5.729178   -4.498351 H        1 UNL1     0.1484
     80 H         2.936956   3.938241   -4.642156 H        1 UNL1     0.0317
     81 H         3.114945   5.650551   -4.997457 H        1 UNL1     0.0317
     82 H         5.271053   5.234215   -6.210537 H        1 UNL1     0.0428
     83 H         3.934959   4.318338   -6.872145 H        1 UNL1     0.0428
     84 H         6.575987   2.22619   -4.273872 H        1 UNL1     0.0428
     85 H         6.959322   3.882559   -4.587911 H        1 UNL1     0.0428
     86 H         5.789809   3.379776   -2.442147 H        1 UNL1     0.0317
     87 H         4.424072   2.727566   -3.224283 H        1 UNL1     0.0317
     88 H         6.051377   1.542517   -6.744736 H        1 UNL1     0.0429
     89 H         5.329581   2.768929   -7.789322 H        1 UNL1     0.0429
     90 H         8.082394   2.585022   -6.593063 H        1 UNL1     0.0308
     91 H         6.876636   3.822707   -9.125045 H        1 UNL1     0.0233
     92 H         8.590676   4.012925   -8.676292 H        1 UNL1     0.0233
     93 H         7.94143   2.425358   -9.026595 H        1 UNL1     0.0233
     94 H         8.231489   5.177327   -6.756473 H        1 UNL1     0.0233
     95 H         6.488288   5.116635   -6.453331 H        1 UNL1     0.0233
     96 H         7.620385   4.421316   -5.270589 H        1 UNL1     0.0233
     97 H         1.653993   12.318063   -0.482286 H        1 UNL1     0.0280
     98 H         0.301718   11.22574   -0.358308 H        1 UNL1     0.0280
     99 H         1.449884   11.37447   1.005262 H        1 UNL1     0.0280
     100 H         3.107179   12.002098   -2.739758 H        1 UNL1     0.2922
     101 H         4.68542   1.679125   2.255617 H        1 UNL1     0.0236
     102 H         4.897164   3.417643   2.701465 H        1 UNL1     0.0236
     103 H         6.169041   2.520369   1.93158 H        1 UNL1     0.0236
     104 H         4.378151   0.426991   1.21405 H        1 UNL1     0.2098
     105 H         0.685092   1.219542   -1.02672 H        1 UNL1     0.0234
     106 H         1.361977   -0.429052   -0.90401 H        1 UNL1     0.0234
     107 H         0.0   -0.0   0.0 H        1 UNL1     0.0234
     108 H         0.139872   2.570741   3.368167 H        1 UNL1     0.2098
     109 H         -1.141311   3.653753   -1.61432 H        1 UNL1     0.0234
     110 H         0.192586   2.922097   -0.666585 H        1 UNL1     0.0234
     111 H         -0.789703   1.940084   -1.695955 H        1 UNL1     0.0234
     112 H         -3.311998   -2.991792   0.727528 H        1 UNL1     0.0342
     113 H         -2.83178   -1.915777   2.087609 H        1 UNL1     0.0342
     114 H         -4.027099   -1.379608   0.903673 H        1 UNL1     0.0342
     115 H         -1.528974   1.907137   3.976823 H        1 UNL1     0.0234
     116 H         -2.977956   1.216508   3.239078 H        1 UNL1     0.0234
     117 H         -1.83954   0.249653   4.199727 H        1 UNL1     0.0234
     118 H         -1.381182   6.695785   -0.273788 H        1 UNL1     0.0309
     119 H         -0.728467   8.162818   -1.067412 H        1 UNL1     0.0309
     120 H         -0.212926   6.557542   -1.53588 H        1 UNL1     0.0309
     121 H         -2.999245   3.793306   4.235996 H        1 UNL1     0.0524
     122 H         -3.74977   4.480028   2.789628 H        1 UNL1     0.0524
     123 H         -3.809643   2.720585   3.062602 H        1 UNL1     0.0524
@<TRIPOS>BOND
     1     1     2    1
     2     1    42    1
     3     2     3    2
     4     3     4    1
     5     4     5    2
     6     5     7    1
     7     6    75    1
     8     6    76    1
     9     6    77    1
    10     7     9   am
    11     9    10    1
    12    10    11    2
    13    10    43    1
    14    11    14    1
    15    11    15    1
    16    12    13   ar
    17    12    27   ar
    18    12    43    1
    19    13    14    1
    20    13    30   ar
    21    14    17    2
    22    15    16    1
    23    16    17    1
    24    16    18    1
    25    16    22    1
    26    18    19    1
    27    19    20    1
    28    20    21    1
    29    21    22    1
    30    23    24    1
    31    23    88    1
    32    23    89    1
    33    24    25    1
    34    24    26    1
    35    24    90    1
    36    25    91    1
    37    25    92    1
    38    25    93    1
    39    26    94    1
    40    26    95    1
    41    26    96    1
    42    27    28   ar
    43    28    29   ar
    44    29    30   ar
    45    29    31    1
    46    30    33    1
    47    31    32    1
    48    32    33    1
    49    32    35    1
    50    34    97    1
    51    34    98    1
    52    34    99    1
    53    35    61    1
    54    36    37    1
    55    36    60    1
    56    37    38    1
    57    38    39    1
    58    39    40    1
    59    40    41    1
    60    41    42    1
    61    45   100    1
    62    47   101    1
    63    47   102    1
    64    47   103    1
    65    48   104    1
    66    49   105    1
    67    49   106    1
    68    49   107    1
    69    50   108    1
    70    51    59    1
    71    52   109    1
    72    52   110    1
    73    52   111    1
    74    53    54    1
    75    54    55    2
    76    54    56    1
    77    56   112    1
    78    56   113    1
    79    56   114    1
    80    57   115    1
    81    57   116    1
    82    57   117    1
    83    58   118    1
    84    58   119    1
    85    58   120    1
    86    59   121    1
    87    59   122    1
    88    59   123    1
    89    60    61    2
    90     1    47    1
    91     1    62    1
    92     2    63    1
    93     3    64    1
    94     4    65    1
    95     5     6    1
    96     7     8    2
    97     9    78    1
    98    15    79    1
    99    18    80    1
   100    18    81    1
   101    19    82    1
   102    19    83    1
   103    20    23    1
   104    21    84    1
   105    21    85    1
   106    22    86    1
   107    22    87    1
   108    27    45    1
   109    28    34    1
   110    32    58    1
   111    33    46    2
   112    36    51    1
   113    36    66    1
   114    37    52    1
   115    37    67    1
   116    38    53    1
   117    38    68    1
   118    42    48    1
   119    42    72    1
   120    43    44    2
   121    60    73    1
   122    61    74    1
   123    39    69    1
   124    39    57    1
   125    40    70    1
   126    40    50    1
   127    41    71    1
   128    41    49    1
