@<TRIPOS>MOLECULE
*****
 123 128 0 0 0
SMALL
GASTEIGER

@<TRIPOS>ATOM
     1 C         -0.172554   1.04745   -5.363797 C.3        1 UNL1     0.0009
     2 C         -1.191925   1.75127   -6.743129 C.2        1 UNL1     -0.0787
     3 C         -2.019723   1.562667   -7.91583 C.2        1 UNL1     -0.0649
     4 C         -2.866957   2.738156   -8.791488 C.2        1 UNL1     -0.0542
     5 C         -3.926269   2.967196   -9.70389 C.2        1 UNL1     0.0115
     6 C         -4.939065   2.270854   -10.653982 C.3        1 UNL1     -0.0348
     7 C         -4.520924   4.451395   -9.847161 C.2        1 UNL1     0.2441
     8 O         -4.242946   5.19244   -10.779956 O.2        1 UNL1     -0.2702
     9 N         -5.581481   4.747854   -8.973386 N.am        1 UNL1     -0.2772
     10 C         -5.098832   5.232316   -7.779373 C.2        1 UNL1     0.1049
     11 C         -4.712009   4.327951   -6.898058 C.2        1 UNL1     0.0801
     12 C         -3.510883   6.907369   -6.815035 C.ar        1 UNL1     0.0753
     13 C         -2.98311   5.836172   -6.025983 C.ar        1 UNL1     0.0305
     14 C         -3.654929   4.541002   -5.946971 C.2        1 UNL1     0.0924
     15 N         -4.902729   2.997543   -6.885084 N.pl3        1 UNL1     -0.3170
     16 C         -4.433991   2.498772   -5.619475 C.3        1 UNL1     0.1275
     17 N         -3.367524   3.480039   -5.198182 N.2        1 UNL1     -0.2557
     18 C         -5.575314   2.658638   -4.619713 C.3        1 UNL1     0.0016
     19 C         -6.801106   1.94118   -5.162187 C.3        1 UNL1     0.0026
     20 N         -6.471332   0.536592   -5.360703 N.3        1 UNL1     -0.3018
     21 C         -5.343821   0.283805   -6.260251 C.3        1 UNL1     0.0026
     22 C         -4.122397   1.009834   -5.693771 C.3        1 UNL1     0.0016
     23 C         -7.639791   -0.290437   -5.587356 C.3        1 UNL1     0.0012
     24 C         -8.886252   0.355302   -4.961968 C.3        1 UNL1     -0.0339
     25 C         -9.14349   1.756735   -5.539783 C.3        1 UNL1     -0.0615
     26 C         -10.08975   -0.553393   -5.142656 C.3        1 UNL1     -0.0615
     27 C         -2.933024   8.174491   -6.790542 C.ar        1 UNL1     0.1347
     28 C         -1.853201   8.499957   -5.989227 C.ar        1 UNL1     0.0342
     29 C         -1.320145   7.417161   -5.258086 C.ar        1 UNL1     0.1435
     30 C         -1.866226   6.133716   -5.300344 C.ar        1 UNL1     0.0774
     31 O         -0.337281   7.596582   -4.348805 O.3        1 UNL1     -0.4436
     32 C         -0.400309   6.431799   -3.512037 C.3        1 UNL1     0.3143
     33 C         -1.072276   5.370793   -4.35994 C.2        1 UNL1     0.2504
     34 C         -1.340718   9.887621   -5.721178 C.3        1 UNL1     -0.0327
     35 O         0.945909   5.995414   -3.287279 O.2        1 UNL1     -0.4528
     36 C         0.94903   4.349677   0.133193 C.3        1 UNL1     0.0854
     37 C         0.082836   3.140568   0.65787 C.3        1 UNL1     0.0236
     38 C         0.92586   1.91546   1.258009 C.3        1 UNL1     0.1131
     39 C         2.115042   1.295181   0.419337 C.3        1 UNL1     0.0200
     40 C         1.938203   1.01102   -1.214804 C.3        1 UNL1     0.0661
     41 C         0.644905   0.19308   -1.946899 C.3        1 UNL1     0.0091
     42 C         -0.131435   0.425655   -3.592684 C.3        1 UNL1     0.0661
     43 C         -4.748321   6.648088   -7.592067 C.2        1 UNL1     0.2131
     44 O         -5.501126   7.526631   -7.971785 O.2        1 UNL1     -0.2851
     45 O         -3.479823   9.149058   -7.622808 O.3        1 UNL1     -0.5056
     46 O         -0.960135   4.16733   -4.289547 O.2        1 UNL1     -0.2836
     47 C         1.196346   0.552398   -5.903256 C.3        1 UNL1     -0.0566
     48 O         -0.12672   -1.019417   -3.925639 O.3        1 UNL1     -0.3909
     49 C         -0.479079   0.060249   -0.943649 C.3        1 UNL1     -0.0577
     50 O         2.265304   2.165045   -1.962437 O.3        1 UNL1     -0.3910
     51 O         2.342234   4.137937   0.09344 O.3        1 UNL1     -0.3753
     52 C         -1.197561   2.921233   -0.21243 C.3        1 UNL1     -0.0564
     53 O         0.098674   0.951903   2.057789 O.3        1 UNL1     -0.4608
     54 C         0.589456   -0.080317   2.813821 C.2        1 UNL1     0.3042
     55 O         0.03751   -1.151144   3.063869 O.2        1 UNL1     -0.2512
     56 C         1.98327   0.156086   3.321864 C.3        1 UNL1     0.0332
     57 C         3.467739   1.991644   0.912616 C.3        1 UNL1     -0.0567
     58 C         -1.332385   6.791198   -2.33153 C.3        1 UNL1     0.0210
     59 C         2.738992   2.768576   0.035991 C.3        1 UNL1     0.0372
     60 C         0.555813   4.871335   -1.204123 C.2        1 UNL1     -0.0208
     61 C         1.304767   5.208316   -2.254959 C.2        1 UNL1     0.0882
     62 H         -0.01159   2.065446   -4.988982 H        1 UNL1     0.0365
     63 H         -1.039423   2.820761   -6.58375 H        1 UNL1     0.0576
     64 H         -2.310727   0.56663   -8.256908 H        1 UNL1     0.0615
     65 H         -2.448095   3.682389   -8.433074 H        1 UNL1     0.0622
     66 H         0.747767   5.162728   0.844873 H        1 UNL1     0.0645
     67 H         -0.40682   3.535312   1.565049 H        1 UNL1     0.0362
     68 H         1.403219   2.421115   2.111216 H        1 UNL1     0.0741
     69 H         2.338876   0.310805   0.808324 H        1 UNL1     0.0359
     70 H         2.788887   0.322911   -1.381848 H        1 UNL1     0.0600
     71 H         1.049441   -0.838035   -1.957385 H        1 UNL1     0.0348
     72 H         0.859869   0.89754   -3.655587 H        1 UNL1     0.0602
     73 H         -0.484657   5.082688   -1.204439 H        1 UNL1     0.0628
     74 H         2.365028   4.97446   -2.356916 H        1 UNL1     0.1022
     75 H         -5.785219   2.958017   -10.896602 H        1 UNL1     0.0279
     76 H         -4.569964   1.99663   -11.639697 H        1 UNL1     0.0279
     77 H         -5.469016   1.435971   -10.172501 H        1 UNL1     0.0279
     78 H         -6.104893   3.898804   -8.77033 H        1 UNL1     0.1553
     79 H         -5.606747   2.530497   -7.426526 H        1 UNL1     0.1484
     80 H         -5.264254   2.244895   -3.652851 H        1 UNL1     0.0317
     81 H         -5.801272   3.716799   -4.449741 H        1 UNL1     0.0317
     82 H         -7.161063   2.398968   -6.09534 H        1 UNL1     0.0428
     83 H         -7.603292   2.069325   -4.434776 H        1 UNL1     0.0428
     84 H         -5.066295   -0.772596   -6.329576 H        1 UNL1     0.0428
     85 H         -5.575853   0.567237   -7.296178 H        1 UNL1     0.0428
     86 H         -3.292382   0.695858   -6.299149 H        1 UNL1     0.0317
     87 H         -3.877259   0.612491   -4.701238 H        1 UNL1     0.0317
     88 H         -7.795135   -0.372495   -6.671066 H        1 UNL1     0.0429
     89 H         -7.487769   -1.308486   -5.206252 H        1 UNL1     0.0429
     90 H         -8.73904   0.445654   -3.879204 H        1 UNL1     0.0308
     91 H         -9.756533   2.35956   -4.863112 H        1 UNL1     0.0233
     92 H         -8.200841   2.275902   -5.728167 H        1 UNL1     0.0233
     93 H         -9.670768   1.721899   -6.500823 H        1 UNL1     0.0233
     94 H         -9.807138   -1.595565   -4.958688 H        1 UNL1     0.0233
     95 H         -10.871611   -0.284724   -4.426784 H        1 UNL1     0.0233
     96 H         -10.497283   -0.479363   -6.154784 H        1 UNL1     0.0233
     97 H         -1.017441   10.385322   -6.630583 H        1 UNL1     0.0280
     98 H         -2.110426   10.535286   -5.281479 H        1 UNL1     0.0280
     99 H         -0.482622   9.837227   -5.031086 H        1 UNL1     0.0280
     100 H         -4.384024   9.01198   -7.844738 H        1 UNL1     0.2922
     101 H         1.42786   -0.423884   -5.477898 H        1 UNL1     0.0236
     102 H         2.002784   1.268149   -5.74724 H        1 UNL1     0.0236
     103 H         1.176009   0.385129   -6.993119 H        1 UNL1     0.0236
     104 H         -0.293189   -1.101583   -4.88507 H        1 UNL1     0.2098
     105 H         -1.160175   0.907148   -0.917532 H        1 UNL1     0.0234
     106 H         -1.038755   -0.872801   -1.007724 H        1 UNL1     0.0234
     107 H         0.0   -0.0   0.0 H        1 UNL1     0.0234
     108 H         3.0647   2.555034   -1.559148 H        1 UNL1     0.2098
     109 H         -1.296044   3.675988   -1.00512 H        1 UNL1     0.0234
     110 H         -1.253072   1.919307   -0.651527 H        1 UNL1     0.0234
     111 H         -2.113532   2.999763   0.388217 H        1 UNL1     0.0234
     112 H         1.982795   0.172478   4.415974 H        1 UNL1     0.0342
     113 H         2.688168   -0.582175   2.942481 H        1 UNL1     0.0342
     114 H         2.313735   1.14322   2.970404 H        1 UNL1     0.0342
     115 H         4.018337   2.450109   0.079645 H        1 UNL1     0.0234
     116 H         3.319103   2.762262   1.671631 H        1 UNL1     0.0234
     117 H         4.21646   1.276781   1.295146 H        1 UNL1     0.0234
     118 H         -0.766175   7.034846   -1.415534 H        1 UNL1     0.0309
     119 H         -2.016362   7.614848   -2.559514 H        1 UNL1     0.0309
     120 H         -1.962791   5.95022   -2.022581 H        1 UNL1     0.0309
     121 H         3.578015   2.697159   -0.6556 H        1 UNL1     0.0524
     122 H         3.081651   2.390911   1.013739 H        1 UNL1     0.0524
     123 H         1.914104   2.152487   -0.310546 H        1 UNL1     0.0524
@<TRIPOS>BOND
     1     1     2    1
     2     1    42    1
     3     2     3    2
     4     3     4    1
     5     4     5    2
     6     5     7    1
     7     6    75    1
     8     6    76    1
     9     6    77    1
    10     7     9   am
    11     9    10    1
    12    10    11    2
    13    10    43    1
    14    11    14    1
    15    11    15    1
    16    12    13   ar
    17    12    27   ar
    18    12    43    1
    19    13    14    1
    20    13    30   ar
    21    14    17    2
    22    15    16    1
    23    16    17    1
    24    16    18    1
    25    16    22    1
    26    18    19    1
    27    19    20    1
    28    20    21    1
    29    21    22    1
    30    23    24    1
    31    23    88    1
    32    23    89    1
    33    24    25    1
    34    24    26    1
    35    24    90    1
    36    25    91    1
    37    25    92    1
    38    25    93    1
    39    26    94    1
    40    26    95    1
    41    26    96    1
    42    27    28   ar
    43    28    29   ar
    44    29    30   ar
    45    29    31    1
    46    30    33    1
    47    31    32    1
    48    32    33    1
    49    32    35    1
    50    34    97    1
    51    34    98    1
    52    34    99    1
    53    35    61    1
    54    36    37    1
    55    36    60    1
    56    37    38    1
    57    38    39    1
    58    39    40    1
    59    40    41    1
    60    41    42    1
    61    45   100    1
    62    47   101    1
    63    47   102    1
    64    47   103    1
    65    48   104    1
    66    49   105    1
    67    49   106    1
    68    49   107    1
    69    50   108    1
    70    51    59    1
    71    52   109    1
    72    52   110    1
    73    52   111    1
    74    53    54    1
    75    54    55    2
    76    54    56    1
    77    56   112    1
    78    56   113    1
    79    56   114    1
    80    57   115    1
    81    57   116    1
    82    57   117    1
    83    58   118    1
    84    58   119    1
    85    58   120    1
    86    59   121    1
    87    59   122    1
    88    59   123    1
    89    60    61    2
    90     1    47    1
    91     1    62    1
    92     2    63    1
    93     3    64    1
    94     4    65    1
    95     5     6    1
    96     7     8    2
    97     9    78    1
    98    15    79    1
    99    18    80    1
   100    18    81    1
   101    19    82    1
   102    19    83    1
   103    20    23    1
   104    21    84    1
   105    21    85    1
   106    22    86    1
   107    22    87    1
   108    27    45    1
   109    28    34    1
   110    32    58    1
   111    33    46    2
   112    36    51    1
   113    36    66    1
   114    37    52    1
   115    37    67    1
   116    38    53    1
   117    38    68    1
   118    42    48    1
   119    42    72    1
   120    43    44    2
   121    60    73    1
   122    61    74    1
   123    39    69    1
   124    39    57    1
   125    40    70    1
   126    40    50    1
   127    41    71    1
   128    41    49    1
