@<TRIPOS>MOLECULE
*****
 123 128 0 0 0
SMALL
GASTEIGER

@<TRIPOS>ATOM
     1 C         -2.010151   2.237002   2.925885 C.3        1 UNL1     0.0009
     2 C         -3.350925   3.489704   2.661124 C.2        1 UNL1     -0.0787
     3 C         -3.784814   4.869076   2.58957 C.2        1 UNL1     -0.0649
     4 C         -5.30681   5.459212   2.140543 C.2        1 UNL1     -0.0542
     5 C         -6.02285   6.589985   1.67609 C.2        1 UNL1     0.0115
     6 C         -5.925197   8.117767   1.412142 C.3        1 UNL1     -0.0348
     7 C         -7.471721   6.37588   1.018883 C.2        1 UNL1     0.2441
     8 O         -8.514086   6.603924   1.617212 O.2        1 UNL1     -0.2702
     9 N         -7.462302   6.159863   -0.370145 N.am        1 UNL1     -0.2772
     10 C         -7.318905   4.819616   -0.646727 C.2        1 UNL1     0.1049
     11 C         -6.084234   4.351023   -0.631509 C.2        1 UNL1     0.0801
     12 C         -8.223355   2.564023   -0.053767 C.ar        1 UNL1     0.0753
     13 C         -6.865772   2.160712   0.153396 C.ar        1 UNL1     0.0305
     14 C         -5.745747   3.00485   -0.256513 C.2        1 UNL1     0.0924
     15 N         -4.911697   5.007057   -0.595415 N.pl3        1 UNL1     -0.3170
     16 C         -3.861226   4.039365   -0.769592 C.3        1 UNL1     0.1275
     17 N         -4.44005   2.752742   -0.233601 N.2        1 UNL1     -0.2557
     18 C         -3.682963   3.830698   -2.270386 C.3        1 UNL1     0.0016
     19 C         -3.40936   5.178007   -2.919609 C.3        1 UNL1     0.0026
     20 N         -2.209452   5.749265   -2.323864 N.3        1 UNL1     -0.3018
     21 C         -2.262187   5.930689   -0.871737 C.3        1 UNL1     0.0026
     22 C         -2.533329   4.564298   -0.239795 C.3        1 UNL1     0.0016
     23 C         -1.693212   6.87998   -3.069266 C.3        1 UNL1     0.0012
     24 C         -1.097229   6.415979   -4.407647 C.3        1 UNL1     -0.0339
     25 C         0.111806   7.275109   -4.812847 C.3        1 UNL1     -0.0615
     26 C         -0.73642   4.942483   -4.334121 C.3        1 UNL1     -0.0615
     27 C         -9.282621   1.70458   0.22807 C.ar        1 UNL1     0.1347
     28 C         -9.107921   0.409276   0.681631 C.ar        1 UNL1     0.0342
     29 C         -7.764915   0.050888   0.924647 C.ar        1 UNL1     0.1435
     30 C         -6.695593   0.913754   0.681269 C.ar        1 UNL1     0.0774
     31 O         -7.422554   -1.211266   1.263413 O.3        1 UNL1     -0.4436
     32 C         -6.022065   -1.300734   0.960926 C.3        1 UNL1     0.3143
     33 C         -5.51867   0.12826   0.988871 C.2        1 UNL1     0.2504
     34 C         -10.174382   -0.64703   0.76518 C.3        1 UNL1     -0.0327
     35 O         -5.393669   -1.98582   2.051351 O.2        1 UNL1     -0.4528
     36 C         -2.420732   -3.812985   0.557631 C.3        1 UNL1     0.0854
     37 C         -1.201682   -3.232738   -0.257692 C.3        1 UNL1     0.0236
     38 C         0.242936   -3.596145   0.336242 C.3        1 UNL1     0.1131
     39 C         0.551204   -3.33567   1.86575 C.3        1 UNL1     0.0200
     40 C         0.067398   -1.915735   2.595238 C.3        1 UNL1     0.0661
     41 C         0.340182   -0.350355   2.001281 C.3        1 UNL1     0.0091
     42 C         -0.672136   1.172255   2.150521 C.3        1 UNL1     0.0661
     43 C         -8.462834   3.895761   -0.663178 C.2        1 UNL1     0.2131
     44 O         -9.491959   4.196583   -1.240367 O.2        1 UNL1     -0.2851
     45 O         -10.575005   2.190849   0.041728 O.3        1 UNL1     -0.5056
     46 O         -4.402549   0.529373   1.232255 O.2        1 UNL1     -0.2836
     47 C         -1.663236   2.129229   4.435195 C.3        1 UNL1     -0.0566
     48 O         0.470874   2.030152   2.546323 O.3        1 UNL1     -0.3909
     49 C         0.782866   -0.446202   0.55825 C.3        1 UNL1     -0.0577
     50 O         -1.256769   -2.025739   3.077115 O.3        1 UNL1     -0.3910
     51 O         -2.104177   -4.422906   1.788574 O.3        1 UNL1     -0.3753
     52 C         -1.522296   -1.826636   -0.861873 C.3        1 UNL1     -0.0564
     53 O         1.368037   -3.343856   -0.624395 O.3        1 UNL1     -0.4608
     54 C         2.607573   -2.86523   -0.289137 C.2        1 UNL1     0.3042
     55 O         3.032267   -1.720472   -0.440804 O.2        1 UNL1     -0.2512
     56 C         3.482876   -3.882767   0.385531 C.3        1 UNL1     0.0332
     57 C         0.287912   -4.704161   2.65066 C.3        1 UNL1     -0.0567
     58 C         -5.92047   -1.837241   -0.485922 C.3        1 UNL1     0.0210
     59 C         -2.220338   -5.844959   1.800296 C.3        1 UNL1     0.0372
     60 C         -3.515292   -2.841618   0.828823 C.2        1 UNL1     -0.0208
     61 C         -4.200087   -2.601134   1.947737 C.2        1 UNL1     0.0882
     62 H         -2.736537   1.44309   2.714278 H        1 UNL1     0.0365
     63 H         -4.218894   2.837384   2.544605 H        1 UNL1     0.0576
     64 H         -3.076725   5.696816   2.670595 H        1 UNL1     0.0615
     65 H         -5.947742   4.573772   2.166719 H        1 UNL1     0.0622
     66 H         -2.85387   -4.578837   -0.101087 H        1 UNL1     0.0645
     67 H         -1.20575   -3.814071   -1.196093 H        1 UNL1     0.0362
     68 H         0.21696   -4.691012   0.226175 H        1 UNL1     0.0741
     69 H         1.623688   -3.321421   2.007109 H        1 UNL1     0.0359
     70 H         0.696342   -1.945093   3.505528 H        1 UNL1     0.0600
     71 H         1.297461   -0.115884   2.506847 H        1 UNL1     0.0348
     72 H         -1.017425   0.499092   2.948608 H        1 UNL1     0.0602
     73 H         -3.812373   -2.386598   -0.083289 H        1 UNL1     0.0628
     74 H         -3.925861   -2.981434   2.932323 H        1 UNL1     0.1022
     75 H         -4.88706   8.482822   1.601987 H        1 UNL1     0.0279
     76 H         -6.105966   8.446218   0.391108 H        1 UNL1     0.0279
     77 H         -6.500049   8.712216   2.137315 H        1 UNL1     0.0279
     78 H         -6.67018   6.64501   -0.786382 H        1 UNL1     0.1553
     79 H         -4.806634   5.973973   -0.842332 H        1 UNL1     0.1484
     80 H         -2.856182   3.129959   -2.438206 H        1 UNL1     0.0317
     81 H         -4.575602   3.373491   -2.710624 H        1 UNL1     0.0317
     82 H         -4.265695   5.860722   -2.817126 H        1 UNL1     0.0428
     83 H         -3.28727   5.006379   -3.98951 H        1 UNL1     0.0428
     84 H         -1.32147   6.285842   -0.439616 H        1 UNL1     0.0428
     85 H         -2.994878   6.696466   -0.581796 H        1 UNL1     0.0428
     86 H         -2.43308   4.710285   0.819746 H        1 UNL1     0.0317
     87 H         -1.716754   3.872141   -0.479001 H        1 UNL1     0.0317
     88 H         -2.527926   7.562405   -3.276251 H        1 UNL1     0.0429
     89 H         -0.956318   7.442239   -2.481366 H        1 UNL1     0.0429
     90 H         -1.861839   6.498486   -5.189169 H        1 UNL1     0.0308
     91 H         0.79526   7.422058   -3.971182 H        1 UNL1     0.0233
     92 H         0.655347   6.811641   -5.639508 H        1 UNL1     0.0233
     93 H         -0.182607   8.272424   -5.161441 H        1 UNL1     0.0233
     94 H         0.015043   4.699305   -5.093069 H        1 UNL1     0.0233
     95 H         -0.312344   4.710144   -3.353233 H        1 UNL1     0.0233
     96 H         -1.612077   4.308508   -4.499258 H        1 UNL1     0.0233
     97 H         -9.926914   -1.52355   0.173824 H        1 UNL1     0.0280
     98 H         -10.319562   -1.008238   1.791683 H        1 UNL1     0.0280
     99 H         -11.128593   -0.238202   0.394456 H        1 UNL1     0.0280
     100 H         -10.737269   3.031309   0.432778 H        1 UNL1     0.2922
     101 H         -1.159199   1.182824   4.629927 H        1 UNL1     0.0236
     102 H         -2.525804   2.274438   5.084713 H        1 UNL1     0.0236
     103 H         -0.941129   2.9009   4.750279 H        1 UNL1     0.0236
     104 H         0.543903   1.993426   3.520124 H        1 UNL1     0.2098
     105 H         1.700382   0.091725   0.33328 H        1 UNL1     0.0234
     106 H         0.833562   -1.461028   0.163934 H        1 UNL1     0.0234
     107 H         0.0   0.0   -0.0 H        1 UNL1     0.0234
     108 H         -1.427558   -2.972978   3.242455 H        1 UNL1     0.2098
     109 H         -2.370584   -1.857392   -1.559852 H        1 UNL1     0.0234
     110 H         -1.702885   -1.061488   -0.099195 H        1 UNL1     0.0234
     111 H         -0.676028   -1.431927   -1.439786 H        1 UNL1     0.0234
     112 H         4.445842   -3.432189   0.644416 H        1 UNL1     0.0342
     113 H         3.005626   -4.315951   1.263271 H        1 UNL1     0.0342
     114 H         3.672933   -4.697803   -0.326339 H        1 UNL1     0.0342
     115 H         0.956637   -4.814121   3.515474 H        1 UNL1     0.0234
     116 H         -0.736318   -4.81938   3.010835 H        1 UNL1     0.0234
     117 H         0.546412   -5.603564   2.065685 H        1 UNL1     0.0234
     118 H         -5.52169   -2.866247   -0.519494 H        1 UNL1     0.0309
     119 H         -6.873081   -1.804576   -1.024131 H        1 UNL1     0.0309
     120 H         -5.208244   -1.270352   -1.095411 H        1 UNL1     0.0309
     121 H         -2.411778   -6.151649   2.82823 H        1 UNL1     0.0524
     122 H         -3.063505   -6.20093   1.18516 H        1 UNL1     0.0524
     123 H         -1.302833   -6.300005   1.438065 H        1 UNL1     0.0524
@<TRIPOS>BOND
     1     1     2    1
     2     1    42    1
     3     2     3    2
     4     3     4    1
     5     4     5    2
     6     5     7    1
     7     6    75    1
     8     6    76    1
     9     6    77    1
    10     7     9   am
    11     9    10    1
    12    10    11    2
    13    10    43    1
    14    11    14    1
    15    11    15    1
    16    12    13   ar
    17    12    27   ar
    18    12    43    1
    19    13    14    1
    20    13    30   ar
    21    14    17    2
    22    15    16    1
    23    16    17    1
    24    16    18    1
    25    16    22    1
    26    18    19    1
    27    19    20    1
    28    20    21    1
    29    21    22    1
    30    23    24    1
    31    23    88    1
    32    23    89    1
    33    24    25    1
    34    24    26    1
    35    24    90    1
    36    25    91    1
    37    25    92    1
    38    25    93    1
    39    26    94    1
    40    26    95    1
    41    26    96    1
    42    27    28   ar
    43    28    29   ar
    44    29    30   ar
    45    29    31    1
    46    30    33    1
    47    31    32    1
    48    32    33    1
    49    32    35    1
    50    34    97    1
    51    34    98    1
    52    34    99    1
    53    35    61    1
    54    36    37    1
    55    36    60    1
    56    37    38    1
    57    38    39    1
    58    39    40    1
    59    40    41    1
    60    41    42    1
    61    45   100    1
    62    47   101    1
    63    47   102    1
    64    47   103    1
    65    48   104    1
    66    49   105    1
    67    49   106    1
    68    49   107    1
    69    50   108    1
    70    51    59    1
    71    52   109    1
    72    52   110    1
    73    52   111    1
    74    53    54    1
    75    54    55    2
    76    54    56    1
    77    56   112    1
    78    56   113    1
    79    56   114    1
    80    57   115    1
    81    57   116    1
    82    57   117    1
    83    58   118    1
    84    58   119    1
    85    58   120    1
    86    59   121    1
    87    59   122    1
    88    59   123    1
    89    60    61    2
    90     1    47    1
    91     1    62    1
    92     2    63    1
    93     3    64    1
    94     4    65    1
    95     5     6    1
    96     7     8    2
    97     9    78    1
    98    15    79    1
    99    18    80    1
   100    18    81    1
   101    19    82    1
   102    19    83    1
   103    20    23    1
   104    21    84    1
   105    21    85    1
   106    22    86    1
   107    22    87    1
   108    27    45    1
   109    28    34    1
   110    32    58    1
   111    33    46    2
   112    36    51    1
   113    36    66    1
   114    37    52    1
   115    37    67    1
   116    38    53    1
   117    38    68    1
   118    42    48    1
   119    42    72    1
   120    43    44    2
   121    60    73    1
   122    61    74    1
   123    39    69    1
   124    39    57    1
   125    40    70    1
   126    40    50    1
   127    41    71    1
   128    41    49    1
