@<TRIPOS>MOLECULE
*****
 123 128 0 0 0
SMALL
GASTEIGER

@<TRIPOS>ATOM
     1 C         5.164384   1.764805   0.462457 C.3        1 UNL1     0.0009
     2 C         6.593881   2.575131   -0.396001 C.2        1 UNL1     -0.0787
     3 C         7.872372   2.480733   -1.068753 C.2        1 UNL1     -0.0649
     4 C         8.74184   3.718372   -1.82943 C.2        1 UNL1     -0.0542
     5 C         9.755778   4.013933   -2.773703 C.2        1 UNL1     0.0115
     6 C         10.881116   3.391759   -3.64539 C.3        1 UNL1     -0.0348
     7 C         9.843209   5.497332   -3.381052 C.2        1 UNL1     0.2441
     8 O         10.666625   6.321601   -3.008101 O.2        1 UNL1     -0.2702
     9 N         9.085922   5.70171   -4.547627 N.am        1 UNL1     -0.2772
     10 C         7.803768   6.084515   -4.226901 C.2        1 UNL1     0.1049
     11 C         6.962598   5.110573   -3.930101 C.2        1 UNL1     0.0801
     12 C         6.50822   7.687498   -2.809392 C.ar        1 UNL1     0.0753
     13 C         5.755113   6.557359   -2.357481 C.ar        1 UNL1     0.0305
     14 C         5.872511   5.25187   -3.003213 C.2        1 UNL1     0.0924
     15 N         7.088432   3.781941   -4.089568 N.pl3        1 UNL1     -0.3170
     16 C         5.822172   3.17894   -3.768274 C.3        1 UNL1     0.1275
     17 N         5.188237   4.132445   -2.785076 N.2        1 UNL1     -0.2557
     18 C         4.962204   3.235084   -5.027243 C.3        1 UNL1     0.0016
     19 C         5.712964   2.55305   -6.159841 C.3        1 UNL1     0.0026
     20 N         5.989468   1.175878   -5.77517 N.3        1 UNL1     -0.3018
     21 C         6.760125   1.01813   -4.540029 C.3        1 UNL1     0.0026
     22 C         5.985439   1.706517   -3.414916 C.3        1 UNL1     0.0016
     23 C         6.430381   0.357448   -6.88711 C.3        1 UNL1     0.0012
     24 C         5.270321   0.104182   -7.86275 C.3        1 UNL1     -0.0339
     25 C         5.355853   1.026778   -9.089762 C.3        1 UNL1     -0.0615
     26 C         5.238678   -1.359948   -8.26537 C.3        1 UNL1     -0.0615
     27 C         6.30263   8.954685   -2.268939 C.ar        1 UNL1     0.1347
     28 C         5.348046   9.221511   -1.303733 C.ar        1 UNL1     0.0342
     29 C         4.652526   8.085017   -0.839192 C.ar        1 UNL1     0.1435
     30 C         4.87313   6.80355   -1.345548 C.ar        1 UNL1     0.0774
     31 O         3.615905   8.195584   0.019993 O.3        1 UNL1     -0.4436
     32 C         2.897255   6.960515   -0.117913 C.3        1 UNL1     0.3143
     33 C         3.910659   5.970404   -0.655413 C.2        1 UNL1     0.2504
     34 C         4.899437   10.586339   -0.86091 C.3        1 UNL1     -0.0327
     35 O         2.545221   6.523027   1.200392 O.2        1 UNL1     -0.4528
     36 C         -0.693997   4.580772   0.821972 C.3        1 UNL1     0.0854
     37 C         -1.00036   3.319035   -0.073396 C.3        1 UNL1     0.0236
     38 C         -1.592679   2.056342   0.718127 C.3        1 UNL1     0.1131
     39 C         -0.858128   1.527963   2.015633 C.3        1 UNL1     0.0200
     40 C         0.803706   1.387541   2.047676 C.3        1 UNL1     0.0661
     41 C         1.758981   0.621379   0.87377 C.3        1 UNL1     0.0091
     42 C         3.462309   0.98905   0.300277 C.3        1 UNL1     0.0661
     43 C         7.452703   7.482444   -3.935519 C.2        1 UNL1     0.2131
     44 O         7.845853   8.38157   -4.656451 O.2        1 UNL1     -0.2851
     45 O         7.109167   9.992174   -2.73214 O.3        1 UNL1     -0.5056
     46 O         3.931074   4.766957   -0.524447 O.2        1 UNL1     -0.2836
     47 C         5.569991   1.336909   1.898552 C.3        1 UNL1     -0.0566
     48 O         3.915658   -0.420648   0.379917 O.3        1 UNL1     -0.3909
     49 C         0.918689   0.385913   -0.361527 C.3        1 UNL1     -0.0577
     50 O         1.40231   2.607343   2.436881 O.3        1 UNL1     -0.3910
     51 O         -0.809826   4.391067   2.214103 O.3        1 UNL1     -0.3753
     52 C         0.038212   3.161487   -1.231625 C.3        1 UNL1     -0.0564
     53 O         -2.197035   1.015282   -0.178129 O.3        1 UNL1     -0.4608
     54 C         -2.394379   -0.300144   0.151475 C.2        1 UNL1     0.3042
     55 O         -1.747874   -1.272421   -0.236529 O.2        1 UNL1     -0.2512
     56 C         -3.502385   -0.511852   1.143551 C.3        1 UNL1     0.0332
     57 C         -1.574243   2.195055   3.280679 C.3        1 UNL1     -0.0567
     58 C         1.815347   7.202023   -1.196189 C.3        1 UNL1     0.0210
     59 C         -1.122562   5.569291   2.95562 C.3        1 UNL1     0.0372
     60 C         0.631765   5.213881   0.583878 C.2        1 UNL1     -0.0208
     61 C         1.548139   5.652141   1.448129 C.2        1 UNL1     0.0882
     62 H         4.685928   2.747532   0.552115 H        1 UNL1     0.0365
     63 H         6.324978   3.628134   -0.289481 H        1 UNL1     0.0576
     64 H         8.331771   1.515238   -1.292092 H        1 UNL1     0.0615
     65 H         8.253865   4.632356   -1.480149 H        1 UNL1     0.0622
     66 H         -1.442641   5.324927   0.515685 H        1 UNL1     0.0645
     67 H         -1.870216   3.625581   -0.679976 H        1 UNL1     0.0362
     68 H         -2.539132   2.490395   1.074982 H        1 UNL1     0.0741
     69 H         -1.185456   0.515901   2.213105 H        1 UNL1     0.0359
     70 H         0.922374   0.727785   2.928414 H        1 UNL1     0.0600
     71 H         1.80806   -0.399537   1.300711 H        1 UNL1     0.0348
     72 H         3.360336   1.477181   1.280402 H        1 UNL1     0.0602
     73 H         0.743329   5.411223   -0.453358 H        1 UNL1     0.0628
     74 H         1.537149   5.441702   2.518097 H        1 UNL1     0.1022
     75 H         10.878323   2.27886   -3.553291 H        1 UNL1     0.0279
     76 H         10.799271   3.538087   -4.72008 H        1 UNL1     0.0279
     77 H         11.888372   3.637166   -3.278088 H        1 UNL1     0.0279
     78 H         9.023699   4.831438   -5.071871 H        1 UNL1     0.1553
     79 H         7.751596   3.355836   -4.71052 H        1 UNL1     0.1484
     80 H         4.003523   2.741249   -4.827682 H        1 UNL1     0.0317
     81 H         4.730916   4.271065   -5.297244 H        1 UNL1     0.0317
     82 H         6.640605   3.087144   -6.413094 H        1 UNL1     0.0428
     83 H         5.08273   2.606038   -7.048124 H        1 UNL1     0.0428
     84 H         6.885357   -0.024366   -4.231274 H        1 UNL1     0.0428
     85 H         7.788492   1.389299   -4.649626 H        1 UNL1     0.0428
     86 H         6.507637   1.45798   -2.509639 H        1 UNL1     0.0317
     87 H         5.008173   1.225906   -3.284301 H        1 UNL1     0.0317
     88 H         7.22185   0.901549   -7.418922 H        1 UNL1     0.0429
     89 H         6.867813   -0.586899   -6.538345 H        1 UNL1     0.0429
     90 H         4.320658   0.294039   -7.348641 H        1 UNL1     0.0308
     91 H         6.308687   0.904715   -9.613509 H        1 UNL1     0.0233
     92 H         4.536674   0.823784   -9.783555 H        1 UNL1     0.0233
     93 H         5.273802   2.087051   -8.821576 H        1 UNL1     0.0233
     94 H         4.579414   -1.500061   -9.128837 H        1 UNL1     0.0233
     95 H         6.241445   -1.691046   -8.549611 H        1 UNL1     0.0233
     96 H         4.876994   -1.990711   -7.448491 H        1 UNL1     0.0233
     97 H         4.055474   10.536621   -0.179379 H        1 UNL1     0.0280
     98 H         5.68889   11.127042   -0.322708 H        1 UNL1     0.0280
     99 H         4.599071   11.179403   -1.7402 H        1 UNL1     0.0280
     100 H         6.641645   10.769374   -2.983149 H        1 UNL1     0.2922
     101 H         4.688159   1.00503   2.446171 H        1 UNL1     0.0236
     102 H         6.11919   2.108716   2.436769 H        1 UNL1     0.0236
     103 H         6.242969   0.463247   1.895839 H        1 UNL1     0.0236
     104 H         4.252553   -0.571465   1.284752 H        1 UNL1     0.2098
     105 H         0.700113   1.283932   -0.933888 H        1 UNL1     0.0234
     106 H         1.28687   -0.401145   -1.019486 H        1 UNL1     0.0234
     107 H         0.0   -0.0   0.0 H        1 UNL1     0.0234
     108 H         1.251789   3.247678   1.71502 H        1 UNL1     0.2098
     109 H         1.066885   3.063662   -0.857494 H        1 UNL1     0.0234
     110 H         -0.188707   2.325903   -1.902484 H        1 UNL1     0.0234
     111 H         0.044268   4.038928   -1.891933 H        1 UNL1     0.0234
     112 H         -3.593133   -1.576705   1.378493 H        1 UNL1     0.0342
     113 H         -3.36004   0.077134   2.048359 H        1 UNL1     0.0342
     114 H         -4.444395   -0.187745   0.680154 H        1 UNL1     0.0342
     115 H         -2.66143   2.037053   3.264918 H        1 UNL1     0.0234
     116 H         -1.203843   1.833835   4.242122 H        1 UNL1     0.0234
     117 H         -1.519163   3.297267   3.286827 H        1 UNL1     0.0234
     118 H         0.913224   7.682029   -0.77813 H        1 UNL1     0.0309
     119 H         2.176936   7.794801   -2.042398 H        1 UNL1     0.0309
     120 H         1.430604   6.268883   -1.622018 H        1 UNL1     0.0309
     121 H         -0.789113   5.411749   3.980973 H        1 UNL1     0.0524
     122 H         -0.597757   6.458672   2.568815 H        1 UNL1     0.0524
     123 H         -2.192817   5.754142   2.933734 H        1 UNL1     0.0524
@<TRIPOS>BOND
     1     1     2    1
     2     1    42    1
     3     2     3    2
     4     3     4    1
     5     4     5    2
     6     5     7    1
     7     6    75    1
     8     6    76    1
     9     6    77    1
    10     7     9   am
    11     9    10    1
    12    10    11    2
    13    10    43    1
    14    11    14    1
    15    11    15    1
    16    12    13   ar
    17    12    27   ar
    18    12    43    1
    19    13    14    1
    20    13    30   ar
    21    14    17    2
    22    15    16    1
    23    16    17    1
    24    16    18    1
    25    16    22    1
    26    18    19    1
    27    19    20    1
    28    20    21    1
    29    21    22    1
    30    23    24    1
    31    23    88    1
    32    23    89    1
    33    24    25    1
    34    24    26    1
    35    24    90    1
    36    25    91    1
    37    25    92    1
    38    25    93    1
    39    26    94    1
    40    26    95    1
    41    26    96    1
    42    27    28   ar
    43    28    29   ar
    44    29    30   ar
    45    29    31    1
    46    30    33    1
    47    31    32    1
    48    32    33    1
    49    32    35    1
    50    34    97    1
    51    34    98    1
    52    34    99    1
    53    35    61    1
    54    36    37    1
    55    36    60    1
    56    37    38    1
    57    38    39    1
    58    39    40    1
    59    40    41    1
    60    41    42    1
    61    45   100    1
    62    47   101    1
    63    47   102    1
    64    47   103    1
    65    48   104    1
    66    49   105    1
    67    49   106    1
    68    49   107    1
    69    50   108    1
    70    51    59    1
    71    52   109    1
    72    52   110    1
    73    52   111    1
    74    53    54    1
    75    54    55    2
    76    54    56    1
    77    56   112    1
    78    56   113    1
    79    56   114    1
    80    57   115    1
    81    57   116    1
    82    57   117    1
    83    58   118    1
    84    58   119    1
    85    58   120    1
    86    59   121    1
    87    59   122    1
    88    59   123    1
    89    60    61    2
    90     1    47    1
    91     1    62    1
    92     2    63    1
    93     3    64    1
    94     4    65    1
    95     5     6    1
    96     7     8    2
    97     9    78    1
    98    15    79    1
    99    18    80    1
   100    18    81    1
   101    19    82    1
   102    19    83    1
   103    20    23    1
   104    21    84    1
   105    21    85    1
   106    22    86    1
   107    22    87    1
   108    27    45    1
   109    28    34    1
   110    32    58    1
   111    33    46    2
   112    36    51    1
   113    36    66    1
   114    37    52    1
   115    37    67    1
   116    38    53    1
   117    38    68    1
   118    42    48    1
   119    42    72    1
   120    43    44    2
   121    60    73    1
   122    61    74    1
   123    39    69    1
   124    39    57    1
   125    40    70    1
   126    40    50    1
   127    41    71    1
   128    41    49    1
