@<TRIPOS>MOLECULE
*****
 123 128 0 0 0
SMALL
GASTEIGER

@<TRIPOS>ATOM
     1 C         -1.334572   -4.074858   3.32415 C.3        1 UNL1     0.0009
     2 C         -2.751324   -4.882011   4.206394 C.2        1 UNL1     -0.0787
     3 C         -3.458602   -5.185126   5.43274 C.2        1 UNL1     -0.0649
     4 C         -4.948632   -5.969646   5.607943 C.2        1 UNL1     -0.0542
     5 C         -6.051129   -6.188682   6.470267 C.2        1 UNL1     0.0115
     6 C         -6.573512   -5.983871   7.918883 C.3        1 UNL1     -0.0348
     7 C         -7.422397   -6.748464   5.851191 C.2        1 UNL1     0.2441
     8 O         -7.769997   -7.917002   5.952275 O.2        1 UNL1     -0.2702
     9 N         -8.318805   -5.757866   5.413788 N.am        1 UNL1     -0.2772
     10 C         -8.057794   -5.41752   4.106363 C.2        1 UNL1     0.1049
     11 C         -7.093001   -4.535977   3.915897 C.2        1 UNL1     0.0801
     12 C         -7.657072   -6.402793   1.842298 C.ar        1 UNL1     0.0753
     13 C         -6.494323   -5.571084   1.772424 C.ar        1 UNL1     0.0305
     14 C         -6.248923   -4.515098   2.752078 C.2        1 UNL1     0.0924
     15 N         -6.454096   -3.750167   4.799542 N.pl3        1 UNL1     -0.3170
     16 C         -5.611522   -2.849866   4.058069 C.3        1 UNL1     0.1275
     17 N         -5.288542   -3.595631   2.786361 N.2        1 UNL1     -0.2557
     18 C         -6.473645   -1.661   3.644495 C.3        1 UNL1     0.0016
     19 C         -7.096153   -1.054365   4.89192 C.3        1 UNL1     0.0026
     20 N         -6.02952   -0.639899   5.792774 N.3        1 UNL1     -0.3018
     21 C         -5.10943   -1.704497   6.198279 C.3        1 UNL1     0.0026
     22 C         -4.492146   -2.296605   4.930106 C.3        1 UNL1     0.0016
     23 C         -6.49792   0.213803   6.866291 C.3        1 UNL1     0.0012
     24 C         -6.447896   -0.532492   8.208788 C.3        1 UNL1     -0.0339
     25 C         -7.165553   -1.889686   8.124818 C.3        1 UNL1     -0.0615
     26 C         -5.007467   -0.689057   8.664234 C.3        1 UNL1     -0.0615
     27 C         -7.946092   -7.325061   0.839298 C.ar        1 UNL1     0.1347
     28 C         -7.171304   -7.477423   -0.296722 C.ar        1 UNL1     0.0342
     29 C         -6.005497   -6.682755   -0.320393 C.ar        1 UNL1     0.1435
     30 C         -5.684045   -5.780503   0.694413 C.ar        1 UNL1     0.0774
     31 O         -5.206163   -6.636405   -1.408475 O.3        1 UNL1     -0.4436
     32 C         -4.450157   -5.426124   -1.251799 C.3        1 UNL1     0.3143
     33 C         -4.471844   -5.135184   0.235176 C.2        1 UNL1     0.2504
     34 C         -7.549953   -8.258895   -1.523925 C.3        1 UNL1     -0.0327
     35 O         -3.09222   -5.724173   -1.598823 O.2        1 UNL1     -0.4528
     36 C         -1.641362   -2.502373   -2.985582 C.3        1 UNL1     0.0854
     37 C         -1.539567   -1.082293   -2.306958 C.3        1 UNL1     0.0236
     38 C         -0.061577   -0.462074   -2.255773 C.3        1 UNL1     0.1131
     39 C         1.133658   -1.327301   -1.685628 C.3        1 UNL1     0.0200
     40 C         0.935734   -2.230522   -0.2973 C.3        1 UNL1     0.0661
     41 C         0.292983   -1.670494   1.169278 C.3        1 UNL1     0.0091
     42 C         -0.688497   -2.544381   2.449286 C.3        1 UNL1     0.0661
     43 C         -8.592795   -6.188034   2.973916 C.2        1 UNL1     0.2131
     44 O         -9.763324   -6.522891   2.95221 O.2        1 UNL1     -0.2851
     45 O         -9.07265   -8.127831   1.006225 O.3        1 UNL1     -0.5056
     46 O         -3.659907   -4.526843   0.895884 O.2        1 UNL1     -0.2836
     47 C         -0.029561   -4.886344   3.544195 C.3        1 UNL1     -0.0566
     48 O         0.125599   -2.039128   3.581136 O.3        1 UNL1     -0.3909
     49 C         -0.381435   -0.338161   0.929394 C.3        1 UNL1     -0.0577
     50 O         0.407974   -3.506203   -0.600335 O.3        1 UNL1     -0.3910
     51 O         -0.415857   -3.123176   -3.302083 O.3        1 UNL1     -0.3753
     52 C         -2.545951   -0.931275   -1.119804 C.3        1 UNL1     -0.0564
     53 O         -0.036306   1.004242   -1.937017 O.3        1 UNL1     -0.4608
     54 C         -0.653917   1.595937   -0.866324 C.2        1 UNL1     0.3042
     55 O         -1.706075   2.233738   -0.869798 O.2        1 UNL1     -0.2512
     56 C         0.049161   1.358974   0.439909 C.3        1 UNL1     0.0332
     57 C         1.862506   -2.021337   -2.928717 C.3        1 UNL1     -0.0567
     58 C         -5.239492   -4.31888   -1.988339 C.3        1 UNL1     0.0210
     59 C         0.608038   -2.963092   -2.321328 C.3        1 UNL1     0.0372
     60 C         -2.44749   -3.502331   -2.233649 C.2        1 UNL1     -0.0208
     61 C         -2.198228   -4.783427   -1.959048 C.2        1 UNL1     0.0882
     62 H         -1.758309   -4.415859   2.37185 H        1 UNL1     0.0365
     63 H         -3.24209   -5.395083   3.37671 H        1 UNL1     0.0576
     64 H         -3.1464   -4.7664   6.392067 H        1 UNL1     0.0615
     65 H         -5.126279   -6.414172   4.624926 H        1 UNL1     0.0622
     66 H         -2.184482   -2.321607   -3.923874 H        1 UNL1     0.0645
     67 H         -2.036588   -0.406177   -3.024172 H        1 UNL1     0.0362
     68 H         0.135541   -0.367172   -3.334504 H        1 UNL1     0.0741
     69 H         1.948446   -0.665503   -1.423807 H        1 UNL1     0.0359
     70 H         1.995454   -2.423033   -0.042363 H        1 UNL1     0.0600
     71 H         1.223611   -1.353868   1.679803 H        1 UNL1     0.0348
     72 H         -0.190245   -3.328747   1.861213 H        1 UNL1     0.0602
     73 H         -3.39841   -3.086825   -2.009252 H        1 UNL1     0.0628
     74 H         -1.232412   -5.268584   -2.104169 H        1 UNL1     0.1022
     75 H         -5.84549   -5.384552   8.517076 H        1 UNL1     0.0279
     76 H         -7.492396   -5.41199   8.026926 H        1 UNL1     0.0279
     77 H         -6.608369   -6.920276   8.494758 H        1 UNL1     0.0279
     78 H         -8.202876   -4.918519   5.977822 H        1 UNL1     0.1553
     79 H         -6.810834   -3.533656   5.712118 H        1 UNL1     0.1484
     80 H         -5.847897   -0.932798   3.114469 H        1 UNL1     0.0317
     81 H         -7.256541   -1.970346   2.94376 H        1 UNL1     0.0317
     82 H         -7.78214   -1.757017   5.387516 H        1 UNL1     0.0428
     83 H         -7.708035   -0.209628   4.574005 H        1 UNL1     0.0428
     84 H         -4.272736   -1.351946   6.809395 H        1 UNL1     0.0428
     85 H         -5.604792   -2.453892   6.831005 H        1 UNL1     0.0428
     86 H         -3.731174   -2.975309   5.268145 H        1 UNL1     0.0317
     87 H         -3.924878   -1.525732   4.394328 H        1 UNL1     0.0317
     88 H         -5.831957   1.084599   6.925479 H        1 UNL1     0.0429
     89 H         -7.507107   0.59402   6.661963 H        1 UNL1     0.0429
     90 H         -6.940338   0.075983   8.976559 H        1 UNL1     0.0308
     91 H         -6.486868   -2.713928   8.363803 H        1 UNL1     0.0233
     92 H         -8.01868   -1.918384   8.806697 H        1 UNL1     0.0233
     93 H         -7.567311   -2.088437   7.123857 H        1 UNL1     0.0233
     94 H         -4.871385   -1.655729   9.161087 H        1 UNL1     0.0233
     95 H         -4.336977   -0.656412   7.800903 H        1 UNL1     0.0233
     96 H         -4.72173   0.101999   9.363199 H        1 UNL1     0.0233
     97 H         -8.622414   -8.255456   -1.694354 H        1 UNL1     0.0280
     98 H         -7.099588   -7.843006   -2.434674 H        1 UNL1     0.0280
     99 H         -7.221316   -9.305029   -1.411247 H        1 UNL1     0.0280
     100 H         -9.60218   -7.909042   1.752785 H        1 UNL1     0.2922
     101 H         -0.267965   -5.944502   3.649649 H        1 UNL1     0.0236
     102 H         0.569626   -4.517242   4.375893 H        1 UNL1     0.0236
     103 H         0.641476   -4.836377   2.670465 H        1 UNL1     0.0236
     104 H         0.674476   -1.303966   3.244622 H        1 UNL1     0.2098
     105 H         -1.463968   -0.391475   0.845182 H        1 UNL1     0.0234
     106 H         -0.095073   0.449232   1.626485 H        1 UNL1     0.0234
     107 H         0.0   0.0   0.0 H        1 UNL1     0.0234
     108 H         1.146988   -4.056427   -0.924187 H        1 UNL1     0.2098
     109 H         -3.438862   -0.356145   -1.40202 H        1 UNL1     0.0234
     110 H         -2.84962   -1.891111   -0.688246 H        1 UNL1     0.0234
     111 H         -2.098064   -0.389778   -0.275928 H        1 UNL1     0.0234
     112 H         1.104971   1.135553   0.25909 H        1 UNL1     0.0342
     113 H         -0.060831   2.20013   1.122699 H        1 UNL1     0.0342
     114 H         -0.40384   0.480023   0.918865 H        1 UNL1     0.0342
     115 H         2.863924   -1.603195   -3.100494 H        1 UNL1     0.0234
     116 H         1.970631   -3.103497   -2.832334 H        1 UNL1     0.0234
     117 H         1.375496   -1.812622   -3.896808 H        1 UNL1     0.0234
     118 H         -6.306742   -4.312566   -1.705595 H        1 UNL1     0.0309
     119 H         -4.822201   -3.318742   -1.834086 H        1 UNL1     0.0309
     120 H         -5.2664   -4.472288   -3.072704 H        1 UNL1     0.0309
     121 H         1.083611   -3.933228   -2.179822 H        1 UNL1     0.0524
     122 H         1.388999   -2.254404   -2.64366 H        1 UNL1     0.0524
     123 H         0.180698   -2.615023   -1.385207 H        1 UNL1     0.0524
@<TRIPOS>BOND
     1     1     2    1
     2     1    42    1
     3     2     3    2
     4     3     4    1
     5     4     5    2
     6     5     7    1
     7     6    75    1
     8     6    76    1
     9     6    77    1
    10     7     9   am
    11     9    10    1
    12    10    11    2
    13    10    43    1
    14    11    14    1
    15    11    15    1
    16    12    13   ar
    17    12    27   ar
    18    12    43    1
    19    13    14    1
    20    13    30   ar
    21    14    17    2
    22    15    16    1
    23    16    17    1
    24    16    18    1
    25    16    22    1
    26    18    19    1
    27    19    20    1
    28    20    21    1
    29    21    22    1
    30    23    24    1
    31    23    88    1
    32    23    89    1
    33    24    25    1
    34    24    26    1
    35    24    90    1
    36    25    91    1
    37    25    92    1
    38    25    93    1
    39    26    94    1
    40    26    95    1
    41    26    96    1
    42    27    28   ar
    43    28    29   ar
    44    29    30   ar
    45    29    31    1
    46    30    33    1
    47    31    32    1
    48    32    33    1
    49    32    35    1
    50    34    97    1
    51    34    98    1
    52    34    99    1
    53    35    61    1
    54    36    37    1
    55    36    60    1
    56    37    38    1
    57    38    39    1
    58    39    40    1
    59    40    41    1
    60    41    42    1
    61    45   100    1
    62    47   101    1
    63    47   102    1
    64    47   103    1
    65    48   104    1
    66    49   105    1
    67    49   106    1
    68    49   107    1
    69    50   108    1
    70    51    59    1
    71    52   109    1
    72    52   110    1
    73    52   111    1
    74    53    54    1
    75    54    55    2
    76    54    56    1
    77    56   112    1
    78    56   113    1
    79    56   114    1
    80    57   115    1
    81    57   116    1
    82    57   117    1
    83    58   118    1
    84    58   119    1
    85    58   120    1
    86    59   121    1
    87    59   122    1
    88    59   123    1
    89    60    61    2
    90     1    47    1
    91     1    62    1
    92     2    63    1
    93     3    64    1
    94     4    65    1
    95     5     6    1
    96     7     8    2
    97     9    78    1
    98    15    79    1
    99    18    80    1
   100    18    81    1
   101    19    82    1
   102    19    83    1
   103    20    23    1
   104    21    84    1
   105    21    85    1
   106    22    86    1
   107    22    87    1
   108    27    45    1
   109    28    34    1
   110    32    58    1
   111    33    46    2
   112    36    51    1
   113    36    66    1
   114    37    52    1
   115    37    67    1
   116    38    53    1
   117    38    68    1
   118    42    48    1
   119    42    72    1
   120    43    44    2
   121    60    73    1
   122    61    74    1
   123    39    69    1
   124    39    57    1
   125    40    70    1
   126    40    50    1
   127    41    71    1
   128    41    49    1
