@<TRIPOS>MOLECULE
*****
 123 128 0 0 0
SMALL
GASTEIGER

@<TRIPOS>ATOM
     1 C         5.166685   1.759116   0.458413 C.3        1 UNL1     0.0009
     2 C         6.596561   2.567435   -0.401305 C.2        1 UNL1     -0.0787
     3 C         7.874517   2.471283   -1.074824 C.2        1 UNL1     -0.0649
     4 C         8.744914   3.707597   -1.836595 C.2        1 UNL1     -0.0542
     5 C         9.75859   4.001587   -2.781639 C.2        1 UNL1     0.0115
     6 C         10.882665   3.377748   -3.653765 C.3        1 UNL1     -0.0348
     7 C         9.847328   5.484619   -3.389694 C.2        1 UNL1     0.2441
     8 O         10.671919   6.308112   -3.017626 O.2        1 UNL1     -0.2702
     9 N         9.089535   5.68935   -4.555879 N.am        1 UNL1     -0.2772
     10 C         7.808023   6.073758   -4.234509 C.2        1 UNL1     0.1049
     11 C         6.96593   5.100906   -3.936749 C.2        1 UNL1     0.0801
     12 C         6.515201   7.678839   -2.816884 C.ar        1 UNL1     0.0753
     13 C         5.761093   6.549756   -2.364001 C.ar        1 UNL1     0.0305
     14 C         5.876592   5.243852   -3.009234 C.2        1 UNL1     0.0924
     15 N         7.090148   3.772061   -4.095714 N.pl3        1 UNL1     -0.3170
     16 C         5.823405   3.170646   -3.773353 C.3        1 UNL1     0.1275
     17 N         5.191181   4.125304   -2.790172 N.2        1 UNL1     -0.2557
     18 C         4.962704   3.227219   -5.031802 C.3        1 UNL1     0.0016
     19 C         5.711968   2.543833   -6.164576 C.3        1 UNL1     0.0026
     20 N         5.987145   1.166515   -5.779475 N.3        1 UNL1     -0.3018
     21 C         6.758404   1.008429   -4.544754 C.3        1 UNL1     0.0026
     22 C         5.985217   1.698193   -3.419453 C.3        1 UNL1     0.0016
     23 C         6.42642   0.347095   -6.891335 C.3        1 UNL1     0.0012
     24 C         5.265455   0.094726   -7.86613 C.3        1 UNL1     -0.0339
     25 C         5.351262   1.016686   -9.0936 C.3        1 UNL1     -0.0615
     26 C         5.231887   -1.369543   -8.268086 C.3        1 UNL1     -0.0615
     27 C         6.311399   8.946496   -2.276858 C.ar        1 UNL1     0.1347
     28 C         5.357731   9.214832   -1.311165 C.ar        1 UNL1     0.0342
     29 C         4.66121   8.079337   -0.845684 C.ar        1 UNL1     0.1435
     30 C         4.880032   6.797397   -1.351618 C.ar        1 UNL1     0.0774
     31 O         3.625261   8.191463   0.014108 O.3        1 UNL1     -0.4436
     32 C         2.905115   6.957154   -0.122802 C.3        1 UNL1     0.3143
     33 C         3.917049   5.965652   -0.660508 C.2        1 UNL1     0.2504
     34 C         4.910959   10.580366   -0.868657 C.3        1 UNL1     -0.0327
     35 O         2.553418   6.520645   1.195917 O.2        1 UNL1     -0.4528
     36 C         -0.688252   4.58192   0.820401 C.3        1 UNL1     0.0854
     37 C         -0.996621   3.320141   -0.074219 C.3        1 UNL1     0.0236
     38 C         -1.589878   2.058471   0.718233 C.3        1 UNL1     0.1131
     39 C         -0.855108   1.529824   2.015505 C.3        1 UNL1     0.0200
     40 C         0.806585   1.38752   2.046558 C.3        1 UNL1     0.0661
     41 C         1.760241   0.619755   0.872383 C.3        1 UNL1     0.0091
     42 C         3.463624   0.985232   0.297651 C.3        1 UNL1     0.0661
     43 C         7.458736   7.472213   -3.943519 C.2        1 UNL1     0.2131
     44 O         7.852454   8.370575   -4.665094 O.2        1 UNL1     -0.2851
     45 O         7.118825   9.982861   -2.741024 O.3        1 UNL1     -0.5056
     46 O         3.936174   4.76224   -0.529027 O.2        1 UNL1     -0.2836
     47 C         5.572713   1.331387   1.89444 C.3        1 UNL1     -0.0566
     48 O         3.915416   -0.424947   0.377623 O.3        1 UNL1     -0.3909
     49 C         0.918899   0.384706   -0.362278 C.3        1 UNL1     -0.0577
     50 O         1.406826   2.606809   2.434848 O.3        1 UNL1     -0.3910
     51 O         -0.803416   4.392957   2.212687 O.3        1 UNL1     -0.3753
     52 C         0.041037   3.160902   -1.233037 C.3        1 UNL1     -0.0564
     53 O         -2.195988   1.017709   -0.177184 O.3        1 UNL1     -0.4608
     54 C         -2.394623   -0.297347   0.153122 C.2        1 UNL1     0.3042
     55 O         -1.720603   -1.265351   -0.196882 O.2        1 UNL1     -0.2512
     56 C         -3.545278   -0.513836   1.094313 C.3        1 UNL1     0.0332
     57 C         -1.569661   2.198287   3.280711 C.3        1 UNL1     -0.0567
     58 C         1.8228   7.199423   -1.200498 C.3        1 UNL1     0.0210
     59 C         -1.114338   5.571862   2.953886 C.3        1 UNL1     0.0372
     60 C         0.63808   5.213413   0.581189 C.2        1 UNL1     -0.0208
     61 C         1.555501   5.651006   1.444668 C.2        1 UNL1     0.0882
     62 H         4.689407   2.742427   0.547943 H        1 UNL1     0.0365
     63 H         6.328927   3.62079   -0.295076 H        1 UNL1     0.0576
     64 H         8.332674   1.505167   -1.29803 H        1 UNL1     0.0615
     65 H         8.258203   4.62229   -1.487405 H        1 UNL1     0.0622
     66 H         -1.436241   5.326795   0.514261 H        1 UNL1     0.0645
     67 H         -1.866511   3.627413   -0.680383 H        1 UNL1     0.0362
     68 H         -2.535609   2.49376   1.075496 H        1 UNL1     0.0741
     69 H         -1.183465   0.518223   2.213629 H        1 UNL1     0.0359
     70 H         0.925059   0.728015   2.92751 H        1 UNL1     0.0600
     71 H         1.808426   -0.401029   1.299741 H        1 UNL1     0.0348
     72 H         3.362829   1.473908   1.277626 H        1 UNL1     0.0602
     73 H         0.749211   5.410173   -0.456203 H        1 UNL1     0.0628
     74 H         1.544948   5.441048   2.514735 H        1 UNL1     0.1022
     75 H         10.878662   2.264894   -3.561175 H        1 UNL1     0.0279
     76 H         10.800307   3.523699   -4.728467 H        1 UNL1     0.0279
     77 H         11.890433   3.622168   -3.287208 H        1 UNL1     0.0279
     78 H         9.025988   4.81892   -5.079702 H        1 UNL1     0.1553
     79 H         7.752432   3.344928   -4.716898 H        1 UNL1     0.1484
     80 H         4.003587   2.734565   -4.831418 H        1 UNL1     0.0317
     81 H         4.732426   4.263345   -5.302111 H        1 UNL1     0.0317
     82 H         6.640057   3.076758   -6.41865 H        1 UNL1     0.0428
     83 H         5.081232   2.597151   -7.052483 H        1 UNL1     0.0428
     84 H         6.882643   -0.034074   -4.23562 H        1 UNL1     0.0428
     85 H         7.787124   1.378377   -4.655164 H        1 UNL1     0.0428
     86 H         6.507704   1.449457   -2.514397 H        1 UNL1     0.0317
     87 H         5.007486   1.218753   -3.288008 H        1 UNL1     0.0317
     88 H         7.218173   0.890061   -7.423886 H        1 UNL1     0.0429
     89 H         6.862997   -0.597597   -6.542433 H        1 UNL1     0.0429
     90 H         4.316335   0.285891   -7.351503 H        1 UNL1     0.0308
     91 H         6.366298   1.042871   -9.501176 H        1 UNL1     0.0233
     92 H         4.66018   0.687431   -9.873092 H        1 UNL1     0.0233
     93 H         5.076105   2.051957   -8.85836 H        1 UNL1     0.0233
     94 H         4.611709   -1.501919   -9.161223 H        1 UNL1     0.0233
     95 H         6.242032   -1.715266   -8.504824 H        1 UNL1     0.0233
     96 H         4.823581   -1.993655   -7.468249 H        1 UNL1     0.0233
     97 H         4.067372   10.531909   -0.18657 H        1 UNL1     0.0280
     98 H         5.701369   11.120403   -0.331192 H        1 UNL1     0.0280
     99 H         4.610713   11.173387   -1.748017 H        1 UNL1     0.0280
     100 H         6.649317   10.745129   -3.031079 H        1 UNL1     0.2922
     101 H         4.690851   1.000753   2.442762 H        1 UNL1     0.0236
     102 H         6.123133   2.102803   2.43197 H        1 UNL1     0.0236
     103 H         6.244693   0.456956   1.891683 H        1 UNL1     0.0236
     104 H         4.252711   -0.575752   1.282311 H        1 UNL1     0.2098
     105 H         0.700985   1.282724   -0.934895 H        1 UNL1     0.0234
     106 H         1.285765   -0.40306   -1.020124 H        1 UNL1     0.0234
     107 H         0.0   -0.0   0.0 H        1 UNL1     0.0234
     108 H         1.256577   3.246999   1.712802 H        1 UNL1     0.2098
     109 H         1.069834   3.062067   -0.859513 H        1 UNL1     0.0234
     110 H         -0.18726   2.325283   -1.903384 H        1 UNL1     0.0234
     111 H         0.047676   4.038046   -1.893733 H        1 UNL1     0.0234
     112 H         -3.635667   -1.577873   1.333061 H        1 UNL1     0.0342
     113 H         -3.451351   0.083231   2.000145 H        1 UNL1     0.0342
     114 H         -4.468072   -0.20335   0.585182 H        1 UNL1     0.0342
     115 H         -2.657742   2.046842   3.262496 H        1 UNL1     0.0234
     116 H         -1.203293   1.832642   4.242026 H        1 UNL1     0.0234
     117 H         -1.50799   3.300131   3.289513 H        1 UNL1     0.0234
     118 H         0.92149   7.680641   -0.782079 H        1 UNL1     0.0309
     119 H         2.184529   7.791417   -2.047196 H        1 UNL1     0.0309
     120 H         1.436724   6.266536   -1.625674 H        1 UNL1     0.0309
     121 H         -0.826483   5.395435   3.989921 H        1 UNL1     0.0524
     122 H         -0.551148   6.450569   2.597894 H        1 UNL1     0.0524
     123 H         -2.177599   5.785576   2.891466 H        1 UNL1     0.0524
@<TRIPOS>BOND
     1     1     2    1
     2     1    42    1
     3     2     3    2
     4     3     4    1
     5     4     5    2
     6     5     7    1
     7     6    75    1
     8     6    76    1
     9     6    77    1
    10     7     9   am
    11     9    10    1
    12    10    11    2
    13    10    43    1
    14    11    14    1
    15    11    15    1
    16    12    13   ar
    17    12    27   ar
    18    12    43    1
    19    13    14    1
    20    13    30   ar
    21    14    17    2
    22    15    16    1
    23    16    17    1
    24    16    18    1
    25    16    22    1
    26    18    19    1
    27    19    20    1
    28    20    21    1
    29    21    22    1
    30    23    24    1
    31    23    88    1
    32    23    89    1
    33    24    25    1
    34    24    26    1
    35    24    90    1
    36    25    91    1
    37    25    92    1
    38    25    93    1
    39    26    94    1
    40    26    95    1
    41    26    96    1
    42    27    28   ar
    43    28    29   ar
    44    29    30   ar
    45    29    31    1
    46    30    33    1
    47    31    32    1
    48    32    33    1
    49    32    35    1
    50    34    97    1
    51    34    98    1
    52    34    99    1
    53    35    61    1
    54    36    37    1
    55    36    60    1
    56    37    38    1
    57    38    39    1
    58    39    40    1
    59    40    41    1
    60    41    42    1
    61    45   100    1
    62    47   101    1
    63    47   102    1
    64    47   103    1
    65    48   104    1
    66    49   105    1
    67    49   106    1
    68    49   107    1
    69    50   108    1
    70    51    59    1
    71    52   109    1
    72    52   110    1
    73    52   111    1
    74    53    54    1
    75    54    55    2
    76    54    56    1
    77    56   112    1
    78    56   113    1
    79    56   114    1
    80    57   115    1
    81    57   116    1
    82    57   117    1
    83    58   118    1
    84    58   119    1
    85    58   120    1
    86    59   121    1
    87    59   122    1
    88    59   123    1
    89    60    61    2
    90     1    47    1
    91     1    62    1
    92     2    63    1
    93     3    64    1
    94     4    65    1
    95     5     6    1
    96     7     8    2
    97     9    78    1
    98    15    79    1
    99    18    80    1
   100    18    81    1
   101    19    82    1
   102    19    83    1
   103    20    23    1
   104    21    84    1
   105    21    85    1
   106    22    86    1
   107    22    87    1
   108    27    45    1
   109    28    34    1
   110    32    58    1
   111    33    46    2
   112    36    51    1
   113    36    66    1
   114    37    52    1
   115    37    67    1
   116    38    53    1
   117    38    68    1
   118    42    48    1
   119    42    72    1
   120    43    44    2
   121    60    73    1
   122    61    74    1
   123    39    69    1
   124    39    57    1
   125    40    70    1
   126    40    50    1
   127    41    71    1
   128    41    49    1
