@<TRIPOS>MOLECULE
*****
 123 128 0 0 0
SMALL
GASTEIGER

@<TRIPOS>ATOM
     1 C         -2.940972   -2.386569   1.643254 C.3        1 UNL1     0.0009
     2 C         -3.145046   -4.221934   1.479469 C.2        1 UNL1     -0.0787
     3 C         -3.7326   -5.366044   0.81476 C.2        1 UNL1     -0.0649
     4 C         -3.404978   -7.005629   1.080811 C.2        1 UNL1     -0.0542
     5 C         -3.486003   -8.309605   0.532943 C.2        1 UNL1     0.0115
     6 C         -4.082055   -9.149017   -0.630429 C.3        1 UNL1     -0.0348
     7 C         -2.576318   -9.473867   1.160601 C.2        1 UNL1     0.2441
     8 O         -3.015789   -10.323827   1.922808 O.2        1 UNL1     -0.2702
     9 N         -1.305612   -9.608931   0.574755 N.am        1 UNL1     -0.2772
     10 C         -0.398031   -8.786139   1.201358 C.2        1 UNL1     0.1049
     11 C         -0.3778   -7.528479   0.798738 C.2        1 UNL1     0.0801
     12 C         0.443051   -8.116887   3.460123 C.ar        1 UNL1     0.0753
     13 C         0.247786   -6.7612   3.044682 C.ar        1 UNL1     0.0305
     14 C         -0.044467   -6.421674   1.653868 C.2        1 UNL1     0.0924
     15 N         -0.952872   -6.954964   -0.272197 N.pl3        1 UNL1     -0.3170
     16 C         -0.481702   -5.597677   -0.349815 C.3        1 UNL1     0.1275
     17 N         -0.156167   -5.228548   1.076893 N.2        1 UNL1     -0.2557
     18 C         0.849404   -5.623038   -1.094942 C.3        1 UNL1     0.0016
     19 C         0.639095   -6.292666   -2.44363 C.3        1 UNL1     0.0026
     20 N         -0.363398   -5.542249   -3.187209 N.3        1 UNL1     -0.3018
     21 C         -1.661214   -5.41019   -2.521925 C.3        1 UNL1     0.0026
     22 C         -1.426919   -4.731058   -1.171451 C.3        1 UNL1     0.0016
     23 C         -0.421806   -5.912985   -4.587133 C.3        1 UNL1     0.0012
     24 C         0.994633   -6.060844   -5.16471 C.3        1 UNL1     -0.0339
     25 C         1.863943   -4.834063   -4.843203 C.3        1 UNL1     -0.0615
     26 C         1.631118   -7.344513   -4.660863 C.3        1 UNL1     -0.0615
     27 C         0.839755   -8.423522   4.75963 C.ar        1 UNL1     0.1347
     28 C         1.10906   -7.461757   5.716988 C.ar        1 UNL1     0.0342
     29 C         0.862868   -6.136398   5.299884 C.ar        1 UNL1     0.1435
     30 C         0.430547   -5.816309   4.012304 C.ar        1 UNL1     0.0774
     31 O         1.181802   -5.0811   6.080676 O.3        1 UNL1     -0.4436
     32 C         1.240264   -3.966514   5.177818 C.3        1 UNL1     0.3143
     33 C         0.382531   -4.369183   3.995293 C.2        1 UNL1     0.2504
     34 C         1.775516   -7.70027   7.043279 C.3        1 UNL1     -0.0327
     35 O         0.58068   -2.866187   5.816162 O.2        1 UNL1     -0.4528
     36 C         2.27236   0.266583   4.500087 C.3        1 UNL1     0.0854
     37 C         2.439541   0.757794   3.010696 C.3        1 UNL1     0.0236
     38 C         1.88563   2.234382   2.719816 C.3        1 UNL1     0.1131
     39 C         0.419787   2.625449   3.167747 C.3        1 UNL1     0.0200
     40 C         -0.848958   1.571292   2.919804 C.3        1 UNL1     0.0661
     41 C         -1.219376   0.787776   1.46155 C.3        1 UNL1     0.0091
     42 C         -1.966706   -0.858707   1.151722 C.3        1 UNL1     0.0661
     43 C         0.29589   -9.180969   2.436242 C.2        1 UNL1     0.2131
     44 O         0.797135   -10.286093   2.537195 O.2        1 UNL1     -0.2851
     45 O         0.963017   -9.77011   5.095704 O.3        1 UNL1     -0.5056
     46 O         -0.222432   -3.656567   3.225845 O.2        1 UNL1     -0.2836
     47 C         -4.203884   -1.759379   2.292614 C.3        1 UNL1     -0.0566
     48 O         -2.942553   -0.354739   0.155301 O.3        1 UNL1     -0.3909
     49 C         -0.04099   0.921162   0.522876 C.3        1 UNL1     -0.0577
     50 O         -0.965869   0.665306   3.998343 O.3        1 UNL1     -0.3910
     51 O         1.509787   1.101342   5.342162 O.3        1 UNL1     -0.3753
     52 C         2.263049   -0.412476   1.988802 C.3        1 UNL1     -0.0564
     53 O         2.361877   2.808768   1.417665 O.3        1 UNL1     -0.4608
     54 C         2.124343   4.08447   0.977106 C.2        1 UNL1     0.3042
     55 O         1.113277   4.761475   1.159447 O.2        1 UNL1     -0.2512
     56 C         3.285016   4.693018   0.24279 C.3        1 UNL1     0.0332
     57 C         0.526165   3.341267   4.594093 C.3        1 UNL1     -0.0567
     58 C         2.711101   -3.85688   4.712902 C.3        1 UNL1     0.0210
     59 C         2.266636   2.056829   6.083843 C.3        1 UNL1     0.0372
     60 C         1.725881   -1.109574   4.650791 C.2        1 UNL1     -0.0208
     61 C         0.783937   -1.580838   5.468957 C.2        1 UNL1     0.0882
     62 H         -2.223977   -2.558039   2.455182 H        1 UNL1     0.0365
     63 H         -2.557167   -4.569004   2.331766 H        1 UNL1     0.0576
     64 H         -4.355169   -5.253362   -0.075643 H        1 UNL1     0.0615
     65 H         -2.85323   -7.011308   2.024752 H        1 UNL1     0.0622
     66 H         3.297402   0.228655   4.894926 H        1 UNL1     0.0645
     67 H         3.52766   0.905338   2.897606 H        1 UNL1     0.0362
     68 H         2.554945   2.814044   3.373675 H        1 UNL1     0.0741
     69 H         0.109938   3.503235   2.616481 H        1 UNL1     0.0359
     70 H         -1.701465   2.26545   3.048015 H        1 UNL1     0.0600
     71 H         -1.928632   1.51784   1.024605 H        1 UNL1     0.0348
     72 H         -2.221119   -0.600729   2.190008 H        1 UNL1     0.0602
     73 H         2.300077   -1.779931   4.060733 H        1 UNL1     0.0628
     74 H         0.11408   -0.957359   6.062086 H        1 UNL1     0.1022
     75 H         -3.905402   -8.642521   -1.609862 H        1 UNL1     0.0279
     76 H         -3.645351   -10.131862   -0.792833 H        1 UNL1     0.0279
     77 H         -5.180736   -9.192599   -0.603946 H        1 UNL1     0.0279
     78 H         -1.348325   -9.329435   -0.403066 H        1 UNL1     0.1553
     79 H         -1.270888   -7.466825   -1.074567 H        1 UNL1     0.1484
     80 H         1.214024   -4.595206   -1.21061 H        1 UNL1     0.0317
     81 H         1.609589   -6.162429   -0.519767 H        1 UNL1     0.0317
     82 H         0.343518   -7.346411   -2.333314 H        1 UNL1     0.0428
     83 H         1.600855   -6.301761   -2.957425 H        1 UNL1     0.0428
     84 H         -2.369482   -4.775917   -3.064018 H        1 UNL1     0.0428
     85 H         -2.177972   -6.376271   -2.438468 H        1 UNL1     0.0428
     86 H         -2.404845   -4.531331   -0.774263 H        1 UNL1     0.0317
     87 H         -1.005456   -3.729901   -1.323604 H        1 UNL1     0.0317
     88 H         -0.932994   -6.881615   -4.66288 H        1 UNL1     0.0429
     89 H         -1.01233   -5.191523   -5.166398 H        1 UNL1     0.0429
     90 H         0.929094   -6.166542   -6.254088 H        1 UNL1     0.0308
     91 H         2.487579   -4.553651   -5.69734 H        1 UNL1     0.0233
     92 H         1.240812   -3.982764   -4.559291 H        1 UNL1     0.0233
     93 H         2.541534   -5.011942   -3.999364 H        1 UNL1     0.0233
     94 H         2.542107   -7.118123   -4.096343 H        1 UNL1     0.0233
     95 H         0.940944   -7.866263   -3.991984 H        1 UNL1     0.0233
     96 H         1.893359   -8.011005   -5.487292 H        1 UNL1     0.0233
     97 H         1.087753   -8.109858   7.777071 H        1 UNL1     0.0280
     98 H         2.599764   -8.42157   6.968464 H        1 UNL1     0.0280
     99 H         2.171127   -6.748458   7.43397 H        1 UNL1     0.0280
     100 H         0.873198   -9.954215   6.014213 H        1 UNL1     0.2922
     101 H         -4.091245   -0.676682   2.344917 H        1 UNL1     0.0236
     102 H         -4.447387   -2.192552   3.262176 H        1 UNL1     0.0236
     103 H         -5.106767   -1.917519   1.679435 H        1 UNL1     0.0236
     104 H         -2.462339   -0.2178   -0.684707 H        1 UNL1     0.2098
     105 H         -0.139661   1.71654   -0.211596 H        1 UNL1     0.0234
     106 H         0.929348   0.98029   1.015699 H        1 UNL1     0.0234
     107 H         0.0   0.0   0.0 H        1 UNL1     0.0234
     108 H         -1.457745   1.121276   4.708214 H        1 UNL1     0.2098
     109 H         3.102089   -1.12155   2.019422 H        1 UNL1     0.0234
     110 H         1.31994   -0.955129   2.114571 H        1 UNL1     0.0234
     111 H         2.222547   -0.044377   0.95497 H        1 UNL1     0.0234
     112 H         3.494808   5.690815   0.639948 H        1 UNL1     0.0342
     113 H         4.171589   4.061997   0.283355 H        1 UNL1     0.0342
     114 H         3.003027   4.80337   -0.813368 H        1 UNL1     0.0342
     115 H         0.143999   2.701631   5.40156 H        1 UNL1     0.0234
     116 H         1.540084   3.641972   4.865376 H        1 UNL1     0.0234
     117 H         -0.128868   4.223896   4.69329 H        1 UNL1     0.0234
     118 H         2.837488   -4.166448   3.660666 H        1 UNL1     0.0309
     119 H         3.129448   -2.853866   4.84386 H        1 UNL1     0.0309
     120 H         3.375877   -4.536198   5.257611 H        1 UNL1     0.0309
     121 H         2.389332   1.667681   7.094222 H        1 UNL1     0.0524
     122 H         3.274125   2.210477   5.662659 H        1 UNL1     0.0524
     123 H         1.746253   3.010042   6.109923 H        1 UNL1     0.0524
@<TRIPOS>BOND
     1     1     2    1
     2     1    42    1
     3     2     3    2
     4     3     4    1
     5     4     5    2
     6     5     7    1
     7     6    75    1
     8     6    76    1
     9     6    77    1
    10     7     9   am
    11     9    10    1
    12    10    11    2
    13    10    43    1
    14    11    14    1
    15    11    15    1
    16    12    13   ar
    17    12    27   ar
    18    12    43    1
    19    13    14    1
    20    13    30   ar
    21    14    17    2
    22    15    16    1
    23    16    17    1
    24    16    18    1
    25    16    22    1
    26    18    19    1
    27    19    20    1
    28    20    21    1
    29    21    22    1
    30    23    24    1
    31    23    88    1
    32    23    89    1
    33    24    25    1
    34    24    26    1
    35    24    90    1
    36    25    91    1
    37    25    92    1
    38    25    93    1
    39    26    94    1
    40    26    95    1
    41    26    96    1
    42    27    28   ar
    43    28    29   ar
    44    29    30   ar
    45    29    31    1
    46    30    33    1
    47    31    32    1
    48    32    33    1
    49    32    35    1
    50    34    97    1
    51    34    98    1
    52    34    99    1
    53    35    61    1
    54    36    37    1
    55    36    60    1
    56    37    38    1
    57    38    39    1
    58    39    40    1
    59    40    41    1
    60    41    42    1
    61    45   100    1
    62    47   101    1
    63    47   102    1
    64    47   103    1
    65    48   104    1
    66    49   105    1
    67    49   106    1
    68    49   107    1
    69    50   108    1
    70    51    59    1
    71    52   109    1
    72    52   110    1
    73    52   111    1
    74    53    54    1
    75    54    55    2
    76    54    56    1
    77    56   112    1
    78    56   113    1
    79    56   114    1
    80    57   115    1
    81    57   116    1
    82    57   117    1
    83    58   118    1
    84    58   119    1
    85    58   120    1
    86    59   121    1
    87    59   122    1
    88    59   123    1
    89    60    61    2
    90     1    47    1
    91     1    62    1
    92     2    63    1
    93     3    64    1
    94     4    65    1
    95     5     6    1
    96     7     8    2
    97     9    78    1
    98    15    79    1
    99    18    80    1
   100    18    81    1
   101    19    82    1
   102    19    83    1
   103    20    23    1
   104    21    84    1
   105    21    85    1
   106    22    86    1
   107    22    87    1
   108    27    45    1
   109    28    34    1
   110    32    58    1
   111    33    46    2
   112    36    51    1
   113    36    66    1
   114    37    52    1
   115    37    67    1
   116    38    53    1
   117    38    68    1
   118    42    48    1
   119    42    72    1
   120    43    44    2
   121    60    73    1
   122    61    74    1
   123    39    69    1
   124    39    57    1
   125    40    70    1
   126    40    50    1
   127    41    71    1
   128    41    49    1
