@<TRIPOS>MOLECULE
*****
 123 128 0 0 0
SMALL
GASTEIGER

@<TRIPOS>ATOM
     1 C         5.168022   1.743864   0.500033 C.3        1 UNL1     0.0009
     2 C         6.606698   2.549117   -0.347798 C.2        1 UNL1     -0.0787
     3 C         7.889551   2.450134   -1.011527 C.2        1 UNL1     -0.0649
     4 C         8.76918   3.684815   -1.7653 C.2        1 UNL1     -0.0542
     5 C         9.790925   3.976966   -2.702189 C.2        1 UNL1     0.0115
     6 C         10.919995   3.350917   -3.566242 C.3        1 UNL1     -0.0348
     7 C         9.888407   5.460352   -3.308037 C.2        1 UNL1     0.2441
     8 O         10.712345   6.281214   -2.928778 O.2        1 UNL1     -0.2702
     9 N         9.140207   5.668315   -4.479831 N.am        1 UNL1     -0.2772
     10 C         7.857305   6.055912   -4.167977 C.2        1 UNL1     0.1049
     11 C         7.010284   5.085075   -3.877715 C.2        1 UNL1     0.0801
     12 C         6.557959   7.663119   -2.758751 C.ar        1 UNL1     0.0753
     13 C         5.797294   6.535658   -2.312849 C.ar        1 UNL1     0.0305
     14 C         5.914208   5.230083   -2.958494 C.2        1 UNL1     0.0924
     15 N         7.132096   3.756054   -4.037062 N.pl3        1 UNL1     -0.3170
     16 C         5.861264   3.15779   -3.725103 C.3        1 UNL1     0.1275
     17 N         5.224073   4.113199   -2.745866 N.2        1 UNL1     -0.2557
     18 C         5.010467   3.217969   -4.990103 C.3        1 UNL1     0.0016
     19 C         5.76659   2.533658   -6.117749 C.3        1 UNL1     0.0026
     20 N         6.035021   1.155211   -5.731932 N.3        1 UNL1     -0.3018
     21 C         6.796285   0.993788   -4.491452 C.3        1 UNL1     0.0026
     22 C         6.016315   1.684548   -3.371457 C.3        1 UNL1     0.0016
     23 C         6.480633   0.335695   -6.841196 C.3        1 UNL1     0.0012
     24 C         5.325429   0.083836   -7.822943 C.3        1 UNL1     -0.0339
     25 C         5.344144   1.091798   -8.983856 C.3        1 UNL1     -0.0615
     26 C         5.372092   -1.348632   -8.325576 C.3        1 UNL1     -0.0615
     27 C         6.353455   8.930793   -2.21903 C.ar        1 UNL1     0.1347
     28 C         5.393092   9.200782   -1.260458 C.ar        1 UNL1     0.0342
     29 C         4.689898   8.066737   -0.801521 C.ar        1 UNL1     0.1435
     30 C         4.909119   6.784705   -1.307049 C.ar        1 UNL1     0.0774
     31 O         3.647648   8.180846   0.050359 O.3        1 UNL1     -0.4436
     32 C         2.925213   6.94865   -0.093359 C.3        1 UNL1     0.3143
     33 C         3.938559   5.954916   -0.62424 C.2        1 UNL1     0.2504
     34 C         4.946646   10.567094   -0.820029 C.3        1 UNL1     -0.0327
     35 O         2.562149   6.511797   1.222162 O.2        1 UNL1     -0.4528
     36 C         -0.681806   4.582332   0.81966 C.3        1 UNL1     0.0854
     37 C         -0.9867   3.322291   -0.078593 C.3        1 UNL1     0.0236
     38 C         -1.589504   2.061465   0.707974 C.3        1 UNL1     0.1131
     39 C         -0.866224   1.529519   2.010345 C.3        1 UNL1     0.0200
     40 C         0.794785   1.382635   2.054085 C.3        1 UNL1     0.0661
     41 C         1.755383   0.613426   0.886531 C.3        1 UNL1     0.0091
     42 C         3.464146   0.974807   0.32534 C.3        1 UNL1     0.0661
     43 C         7.509602   7.455029   -3.878275 C.2        1 UNL1     0.2131
     44 O         7.911333   8.353025   -4.595878 O.2        1 UNL1     -0.2851
     45 O         7.167269   9.965403   -2.675896 O.3        1 UNL1     -0.5056
     46 O         3.953381   4.751326   -0.493835 O.2        1 UNL1     -0.2836
     47 C         5.561775   1.313599   1.938717 C.3        1 UNL1     -0.0566
     48 O         3.911454   -0.436683   0.407369 O.3        1 UNL1     -0.3909
     49 C         0.922964   0.381908   -0.354828 C.3        1 UNL1     -0.0577
     50 O         1.395337   2.599889   2.448234 O.3        1 UNL1     -0.3910
     51 O         -0.808237   4.392303   2.210823 O.3        1 UNL1     -0.3753
     52 C         0.05944   3.16136   -1.229524 C.3        1 UNL1     -0.0564
     53 O         -2.191519   1.023256   -0.19315 O.3        1 UNL1     -0.4608
     54 C         -2.4154   -0.286665   0.141385 C.2        1 UNL1     0.3042
     55 O         -1.843321   -1.279965   -0.305739 O.2        1 UNL1     -0.2512
     56 C         -3.446616   -0.464301   1.219231 C.3        1 UNL1     0.0332
     57 C         -1.5887   2.19868   3.270673 C.3        1 UNL1     -0.0567
     58 C         1.851921   7.194952   -1.179135 C.3        1 UNL1     0.0210
     59 C         -1.160279   5.563275   2.946185 C.3        1 UNL1     0.0372
     60 C         0.648053   5.210427   0.591338 C.2        1 UNL1     -0.0208
     61 C         1.559969   5.644648   1.462318 C.2        1 UNL1     0.0882
     62 H         4.692753   2.728389   0.586871 H        1 UNL1     0.0365
     63 H         6.341129   3.603095   -0.242572 H        1 UNL1     0.0576
     64 H         8.346778   1.482989   -1.232167 H        1 UNL1     0.0615
     65 H         8.282286   4.60049   -1.418952 H        1 UNL1     0.0622
     66 H         -1.425371   5.329556   0.508509 H        1 UNL1     0.0645
     67 H         -1.851039   3.632546   -0.691145 H        1 UNL1     0.0362
     68 H         -2.536775   2.498987   1.058366 H        1 UNL1     0.0741
     69 H         -1.198862   0.518625   2.204902 H        1 UNL1     0.0359
     70 H         0.904649   0.721933   2.935256 H        1 UNL1     0.0600
     71 H         1.797478   -0.40791   1.313214 H        1 UNL1     0.0348
     72 H         3.357119   1.462784   1.305003 H        1 UNL1     0.0602
     73 H         0.767732   5.407911   -0.444966 H        1 UNL1     0.0628
     74 H         1.540577   5.433658   2.532058 H        1 UNL1     0.1022
     75 H         10.96335   2.245554   -3.413508 H        1 UNL1     0.0279
     76 H         10.80812   3.43414   -4.644957 H        1 UNL1     0.0279
     77 H         11.924801   3.654711   -3.23795 H        1 UNL1     0.0279
     78 H         9.078331   4.798583   -5.005011 H        1 UNL1     0.1553
     79 H         7.79799   3.327725   -4.653547 H        1 UNL1     0.1484
     80 H         4.048489   2.727746   -4.79763 H        1 UNL1     0.0317
     81 H         4.785115   4.25499   -5.261131 H        1 UNL1     0.0317
     82 H         6.698066   3.064291   -6.364109 H        1 UNL1     0.0428
     83 H         5.142879   2.589585   -7.010446 H        1 UNL1     0.0428
     84 H         6.915284   -0.049358   -4.182426 H        1 UNL1     0.0428
     85 H         7.826834   1.361026   -4.593541 H        1 UNL1     0.0428
     86 H         6.531114   1.433484   -2.462646 H        1 UNL1     0.0317
     87 H         5.036292   1.207659   -3.248052 H        1 UNL1     0.0317
     88 H         7.275768   0.878391   -7.36896 H        1 UNL1     0.0429
     89 H         6.914749   -0.609188   -6.48975 H        1 UNL1     0.0429
     90 H         4.372627   0.183212   -7.289552 H        1 UNL1     0.0308
     91 H         6.292652   1.054243   -9.527936 H        1 UNL1     0.0233
     92 H         4.524117   0.895983   -9.67871 H        1 UNL1     0.0233
     93 H         5.214531   2.125621   -8.641443 H        1 UNL1     0.0233
     94 H         4.675545   -1.478688   -9.160887 H        1 UNL1     0.0233
     95 H         6.377361   -1.585987   -8.684823 H        1 UNL1     0.0233
     96 H         5.102505   -2.057102   -7.537312 H        1 UNL1     0.0233
     97 H         4.15211   10.51772   -0.081446 H        1 UNL1     0.0280
     98 H         5.759119   11.136339   -0.349812 H        1 UNL1     0.0280
     99 H         4.574782   11.132198   -1.690357 H        1 UNL1     0.0280
     100 H         6.701341   10.716227   -2.999622 H        1 UNL1     0.2922
     101 H         4.697825   0.880494   2.442371 H        1 UNL1     0.0236
     102 H         6.012294   2.118403   2.518637 H        1 UNL1     0.0236
     103 H         6.317383   0.510325   1.93855 H        1 UNL1     0.0236
     104 H         4.329519   -0.563279   1.281534 H        1 UNL1     0.2098
     105 H         0.712488   1.280991   -0.928553 H        1 UNL1     0.0234
     106 H         1.292382   -0.406652   -1.010291 H        1 UNL1     0.0234
     107 H         0.0   -0.0   0.0 H        1 UNL1     0.0234
     108 H         1.196004   3.259247   1.755932 H        1 UNL1     0.2098
     109 H         1.083588   3.046948   -0.847762 H        1 UNL1     0.0234
     110 H         -0.172601   2.334656   -1.909569 H        1 UNL1     0.0234
     111 H         0.082358   4.044358   -1.882009 H        1 UNL1     0.0234
     112 H         -3.574296   -1.528315   1.440408 H        1 UNL1     0.0342
     113 H         -3.198071   0.094916   2.119978 H        1 UNL1     0.0342
     114 H         -4.405276   -0.081048   0.843395 H        1 UNL1     0.0342
     115 H         -2.653156   1.931088   3.320841 H        1 UNL1     0.0234
     116 H         -1.138867   1.937481   4.230607 H        1 UNL1     0.0234
     117 H         -1.648195   3.299042   3.210615 H        1 UNL1     0.0234
     118 H         0.950593   7.682451   -0.768089 H        1 UNL1     0.0309
     119 H         2.223082   7.7829   -2.024569 H        1 UNL1     0.0309
     120 H         1.463271   6.263434   -1.604965 H        1 UNL1     0.0309
     121 H         -0.361026   6.291181   2.809423 H        1 UNL1     0.0524
     122 H         -2.09365   6.022391   2.580031 H        1 UNL1     0.0524
     123 H         -1.274198   5.325234   3.999965 H        1 UNL1     0.0524
@<TRIPOS>BOND
     1     1     2    1
     2     1    42    1
     3     2     3    2
     4     3     4    1
     5     4     5    2
     6     5     7    1
     7     6    75    1
     8     6    76    1
     9     6    77    1
    10     7     9   am
    11     9    10    1
    12    10    11    2
    13    10    43    1
    14    11    14    1
    15    11    15    1
    16    12    13   ar
    17    12    27   ar
    18    12    43    1
    19    13    14    1
    20    13    30   ar
    21    14    17    2
    22    15    16    1
    23    16    17    1
    24    16    18    1
    25    16    22    1
    26    18    19    1
    27    19    20    1
    28    20    21    1
    29    21    22    1
    30    23    24    1
    31    23    88    1
    32    23    89    1
    33    24    25    1
    34    24    26    1
    35    24    90    1
    36    25    91    1
    37    25    92    1
    38    25    93    1
    39    26    94    1
    40    26    95    1
    41    26    96    1
    42    27    28   ar
    43    28    29   ar
    44    29    30   ar
    45    29    31    1
    46    30    33    1
    47    31    32    1
    48    32    33    1
    49    32    35    1
    50    34    97    1
    51    34    98    1
    52    34    99    1
    53    35    61    1
    54    36    37    1
    55    36    60    1
    56    37    38    1
    57    38    39    1
    58    39    40    1
    59    40    41    1
    60    41    42    1
    61    45   100    1
    62    47   101    1
    63    47   102    1
    64    47   103    1
    65    48   104    1
    66    49   105    1
    67    49   106    1
    68    49   107    1
    69    50   108    1
    70    51    59    1
    71    52   109    1
    72    52   110    1
    73    52   111    1
    74    53    54    1
    75    54    55    2
    76    54    56    1
    77    56   112    1
    78    56   113    1
    79    56   114    1
    80    57   115    1
    81    57   116    1
    82    57   117    1
    83    58   118    1
    84    58   119    1
    85    58   120    1
    86    59   121    1
    87    59   122    1
    88    59   123    1
    89    60    61    2
    90     1    47    1
    91     1    62    1
    92     2    63    1
    93     3    64    1
    94     4    65    1
    95     5     6    1
    96     7     8    2
    97     9    78    1
    98    15    79    1
    99    18    80    1
   100    18    81    1
   101    19    82    1
   102    19    83    1
   103    20    23    1
   104    21    84    1
   105    21    85    1
   106    22    86    1
   107    22    87    1
   108    27    45    1
   109    28    34    1
   110    32    58    1
   111    33    46    2
   112    36    51    1
   113    36    66    1
   114    37    52    1
   115    37    67    1
   116    38    53    1
   117    38    68    1
   118    42    48    1
   119    42    72    1
   120    43    44    2
   121    60    73    1
   122    61    74    1
   123    39    69    1
   124    39    57    1
   125    40    70    1
   126    40    50    1
   127    41    71    1
   128    41    49    1
