@<TRIPOS>MOLECULE
*****
 123 128 0 0 0
SMALL
GASTEIGER

@<TRIPOS>ATOM
     1 C         3.353012   -2.160164   -1.166872 C.3        1 UNL1     0.0009
     2 C         5.059789   -1.50539   -1.475447 C.2        1 UNL1     -0.0787
     3 C         6.092729   -1.07428   -2.393721 C.2        1 UNL1     -0.0649
     4 C         7.594328   -0.386164   -2.022164 C.2        1 UNL1     -0.0542
     5 C         8.672339   0.386713   -2.51979 C.2        1 UNL1     0.0115
     6 C         9.289863   1.000375   -3.806416 C.3        1 UNL1     -0.0348
     7 C         9.678282   1.078686   -1.477562 C.2        1 UNL1     0.2441
     8 O         10.788781   0.630808   -1.227116 O.2        1 UNL1     -0.2702
     9 N         9.305826   2.371176   -1.069031 N.am        1 UNL1     -0.2772
     10 C         8.474584   2.307909   0.025664 C.2        1 UNL1     0.1049
     11 C         7.196495   2.090057   -0.225834 C.2        1 UNL1     0.0801
     12 C         8.247852   1.261183   2.286259 C.ar        1 UNL1     0.0753
     13 C         6.932887   0.864036   1.884077 C.ar        1 UNL1     0.0305
     14 C         6.31751   1.380135   0.663419 C.2        1 UNL1     0.0924
     15 N         6.527086   2.12549   -1.390808 N.pl3        1 UNL1     -0.3170
     16 C         5.125621   1.985253   -1.096729 C.3        1 UNL1     0.1275
     17 N         5.086634   1.201359   0.192345 N.2        1 UNL1     -0.2557
     18 C         4.592257   3.375256   -0.763388 C.3        1 UNL1     0.0016
     19 C         4.899765   4.305804   -1.92576 C.3        1 UNL1     0.0026
     20 N         4.269577   3.777101   -3.127578 N.3        1 UNL1     -0.3018
     21 C         4.673667   2.418443   -3.495176 C.3        1 UNL1     0.0026
     22 C         4.351485   1.499882   -2.315203 C.3        1 UNL1     0.0016
     23 C         4.246364   4.73108   -4.218462 C.3        1 UNL1     0.0012
     24 C         4.367665   6.166015   -3.681803 C.3        1 UNL1     -0.0339
     25 C         3.41823   6.405184   -2.496295 C.3        1 UNL1     -0.0615
     26 C         5.810307   6.463285   -3.311405 C.3        1 UNL1     -0.0615
     27 C         8.780171   0.860941   3.509599 C.ar        1 UNL1     0.1347
     28 C         8.080184   0.099197   4.428193 C.ar        1 UNL1     0.0342
     29 C         6.806344   -0.320845   3.989946 C.ar        1 UNL1     0.1435
     30 C         6.274299   0.042239   2.752078 C.ar        1 UNL1     0.0774
     31 O         5.958553   -0.975886   4.812854 O.3        1 UNL1     -0.4436
     32 C         4.666264   -0.807717   4.210708 C.3        1 UNL1     0.3143
     33 C         4.944245   -0.530212   2.747174 C.2        1 UNL1     0.2504
     34 C         8.485127   -0.155608   5.853393 C.3        1 UNL1     -0.0327
     35 O         3.998038   -2.073616   4.275709 O.2        1 UNL1     -0.4528
     36 C         0.292872   -1.283608   4.51175 C.3        1 UNL1     0.0854
     37 C         -0.611727   -0.445397   3.528579 C.3        1 UNL1     0.0236
     38 C         -1.909236   -1.213888   2.983017 C.3        1 UNL1     0.1131
     39 C         -1.759243   -2.655191   2.348652 C.3        1 UNL1     0.0200
     40 C         -0.514873   -2.986258   1.288286 C.3        1 UNL1     0.0661
     41 C         -0.089368   -2.057014   -0.06562 C.3        1 UNL1     0.0091
     42 C         1.547307   -1.762758   -0.840289 C.3        1 UNL1     0.0661
     43 C         8.991864   2.187308   1.396879 C.2        1 UNL1     0.2131
     44 O         9.908102   2.893975   1.776177 O.2        1 UNL1     -0.2851
     45 O         10.084224   1.252956   3.804911 O.3        1 UNL1     -0.5056
     46 O         4.236322   -0.752267   1.790414 O.2        1 UNL1     -0.2836
     47 C         3.285633   -3.672816   -1.509402 C.3        1 UNL1     -0.0566
     48 O         1.06902   -2.025142   -2.219242 O.3        1 UNL1     -0.3909
     49 C         -0.781696   -0.715463   0.02613 C.3        1 UNL1     -0.0577
     50 O         0.647935   -3.381436   1.987883 O.3        1 UNL1     -0.3910
     51 O         -0.046883   -2.64458   4.6523 O.3        1 UNL1     -0.3753
     52 C         0.238814   0.499431   2.618178 C.3        1 UNL1     -0.0564
     53 O         -2.921845   -0.306476   2.34776 O.3        1 UNL1     -0.4608
     54 C         -3.425466   -0.440701   1.080369 C.2        1 UNL1     0.3042
     55 O         -2.941249   -1.081438   0.14826 O.2        1 UNL1     -0.2512
     56 C         -4.745879   0.247653   0.881897 C.3        1 UNL1     0.0332
     57 C         -2.060678   -3.722935   3.500709 C.3        1 UNL1     -0.0567
     58 C         4.04731   0.45732   4.849541 C.3        1 UNL1     0.0210
     59 C         0.629732   -3.325338   5.708059 C.3        1 UNL1     0.0372
     60 C         1.751719   -1.233168   4.221268 C.2        1 UNL1     -0.0208
     61 C         2.660812   -2.20847   4.188376 C.2        1 UNL1     0.0882
     62 H         3.542337   -2.091546   -0.088837 H        1 UNL1     0.0365
     63 H         5.456807   -1.484535   -0.458387 H        1 UNL1     0.0576
     64 H         5.911285   -1.007033   -3.468739 H        1 UNL1     0.0615
     65 H         7.710236   -0.575953   -0.951636 H        1 UNL1     0.0622
     66 H         0.163167   -0.797024   5.488714 H        1 UNL1     0.0645
     67 H         -1.068142   0.324444   4.174791 H        1 UNL1     0.0362
     68 H         -2.444906   -1.367205   3.932266 H        1 UNL1     0.0741
     69 H         -2.638855   -2.867754   1.755772 H        1 UNL1     0.0359
     70 H         -0.895282   -3.921   0.833745 H        1 UNL1     0.0600
     71 H         -0.695083   -2.561041   -0.844094 H        1 UNL1     0.0348
     72 H         1.65935   -2.670948   -0.23041 H        1 UNL1     0.0602
     73 H         2.058198   -0.219359   4.14703 H        1 UNL1     0.0628
     74 H         2.42394   -3.272894   4.199759 H        1 UNL1     0.1022
     75 H         8.523276   1.587018   -4.367868 H        1 UNL1     0.0279
     76 H         10.084177   1.729496   -3.663178 H        1 UNL1     0.0279
     77 H         9.567425   0.238851   -4.549881 H        1 UNL1     0.0279
     78 H         8.79221   2.831748   -1.817463 H        1 UNL1     0.1553
     79 H         6.866229   2.588006   -2.214212 H        1 UNL1     0.1484
     80 H         3.513386   3.309195   -0.577806 H        1 UNL1     0.0317
     81 H         5.045797   3.758006   0.157185 H        1 UNL1     0.0317
     82 H         5.98279   4.432992   -2.069952 H        1 UNL1     0.0428
     83 H         4.512559   5.291622   -1.666369 H        1 UNL1     0.0428
     84 H         4.127609   2.015604   -4.353869 H        1 UNL1     0.0428
     85 H         5.727085   2.374879   -3.804578 H        1 UNL1     0.0428
     86 H         4.534923   0.501563   -2.666911 H        1 UNL1     0.0317
     87 H         3.272232   1.505741   -2.119562 H        1 UNL1     0.0317
     88 H         5.107068   4.527243   -4.868796 H        1 UNL1     0.0429
     89 H         3.344235   4.612871   -4.832436 H        1 UNL1     0.0429
     90 H         4.112305   6.871363   -4.481484 H        1 UNL1     0.0308
     91 H         3.946562   6.326368   -1.541436 H        1 UNL1     0.0233
     92 H         2.951643   7.390476   -2.567742 H        1 UNL1     0.0233
     93 H         2.596676   5.679254   -2.46616 H        1 UNL1     0.0233
     94 H         5.848466   7.086177   -2.411192 H        1 UNL1     0.0233
     95 H         6.341244   5.531089   -3.099085 H        1 UNL1     0.0233
     96 H         6.329087   6.989204   -4.117783 H        1 UNL1     0.0233
     97 H         8.533075   -1.216567   6.079884 H        1 UNL1     0.0280
     98 H         9.482204   0.245055   6.078252 H        1 UNL1     0.0280
     99 H         7.753637   0.310279   6.53381 H        1 UNL1     0.0280
     100 H         10.751217   0.686068   3.459395 H        1 UNL1     0.2922
     101 H         2.244753   -3.988838   -1.575386 H        1 UNL1     0.0236
     102 H         3.858837   -4.293938   -0.821922 H        1 UNL1     0.0236
     103 H         3.708065   -3.891342   -2.504385 H        1 UNL1     0.0236
     104 H         1.428995   -1.322381   -2.795015 H        1 UNL1     0.2098
     105 H         -1.456667   -0.501068   -0.79865 H        1 UNL1     0.0234
     106 H         -1.275391   -0.52199   0.97837 H        1 UNL1     0.0234
     107 H         0.0   0.0   0.0 H        1 UNL1     0.0234
     108 H         1.273627   -2.632211   1.957215 H        1 UNL1     0.2098
     109 H         1.257084   0.64422   3.005315 H        1 UNL1     0.0234
     110 H         0.287052   0.164497   1.576432 H        1 UNL1     0.0234
     111 H         -0.200692   1.503803   2.554802 H        1 UNL1     0.0234
     112 H         -4.585006   1.312429   0.687686 H        1 UNL1     0.0342
     113 H         -5.331087   -0.210605   0.086048 H        1 UNL1     0.0342
     114 H         -5.322627   0.158492   1.812798 H        1 UNL1     0.0342
     115 H         -3.139284   -3.874545   3.644972 H        1 UNL1     0.0234
     116 H         -1.611786   -4.702802   3.326339 H        1 UNL1     0.0234
     117 H         -1.756933   -3.383178   4.505818 H        1 UNL1     0.0234
     118 H         4.132349   1.33876   4.190117 H        1 UNL1     0.0309
     119 H         2.999413   0.324732   5.13683 H        1 UNL1     0.0309
     120 H         4.573596   0.769883   5.758074 H        1 UNL1     0.0309
     121 H         1.675566   -3.020727   5.679792 H        1 UNL1     0.0524
     122 H         0.23251   -3.056905   6.701133 H        1 UNL1     0.0524
     123 H         0.548713   -4.400398   5.574729 H        1 UNL1     0.0524
@<TRIPOS>BOND
     1     1     2    1
     2     1    42    1
     3     2     3    2
     4     3     4    1
     5     4     5    2
     6     5     7    1
     7     6    75    1
     8     6    76    1
     9     6    77    1
    10     7     9   am
    11     9    10    1
    12    10    11    2
    13    10    43    1
    14    11    14    1
    15    11    15    1
    16    12    13   ar
    17    12    27   ar
    18    12    43    1
    19    13    14    1
    20    13    30   ar
    21    14    17    2
    22    15    16    1
    23    16    17    1
    24    16    18    1
    25    16    22    1
    26    18    19    1
    27    19    20    1
    28    20    21    1
    29    21    22    1
    30    23    24    1
    31    23    88    1
    32    23    89    1
    33    24    25    1
    34    24    26    1
    35    24    90    1
    36    25    91    1
    37    25    92    1
    38    25    93    1
    39    26    94    1
    40    26    95    1
    41    26    96    1
    42    27    28   ar
    43    28    29   ar
    44    29    30   ar
    45    29    31    1
    46    30    33    1
    47    31    32    1
    48    32    33    1
    49    32    35    1
    50    34    97    1
    51    34    98    1
    52    34    99    1
    53    35    61    1
    54    36    37    1
    55    36    60    1
    56    37    38    1
    57    38    39    1
    58    39    40    1
    59    40    41    1
    60    41    42    1
    61    45   100    1
    62    47   101    1
    63    47   102    1
    64    47   103    1
    65    48   104    1
    66    49   105    1
    67    49   106    1
    68    49   107    1
    69    50   108    1
    70    51    59    1
    71    52   109    1
    72    52   110    1
    73    52   111    1
    74    53    54    1
    75    54    55    2
    76    54    56    1
    77    56   112    1
    78    56   113    1
    79    56   114    1
    80    57   115    1
    81    57   116    1
    82    57   117    1
    83    58   118    1
    84    58   119    1
    85    58   120    1
    86    59   121    1
    87    59   122    1
    88    59   123    1
    89    60    61    2
    90     1    47    1
    91     1    62    1
    92     2    63    1
    93     3    64    1
    94     4    65    1
    95     5     6    1
    96     7     8    2
    97     9    78    1
    98    15    79    1
    99    18    80    1
   100    18    81    1
   101    19    82    1
   102    19    83    1
   103    20    23    1
   104    21    84    1
   105    21    85    1
   106    22    86    1
   107    22    87    1
   108    27    45    1
   109    28    34    1
   110    32    58    1
   111    33    46    2
   112    36    51    1
   113    36    66    1
   114    37    52    1
   115    37    67    1
   116    38    53    1
   117    38    68    1
   118    42    48    1
   119    42    72    1
   120    43    44    2
   121    60    73    1
   122    61    74    1
   123    39    69    1
   124    39    57    1
   125    40    70    1
   126    40    50    1
   127    41    71    1
   128    41    49    1
