@<TRIPOS>MOLECULE
*****
 123 128 0 0 0
SMALL
GASTEIGER

@<TRIPOS>ATOM
     1 C         0.628591   3.504236   2.72065 C.3        1 UNL1     0.0009
     2 C         -0.405988   4.102294   4.138045 C.2        1 UNL1     -0.0787
     3 C         -1.286983   5.092916   4.719905 C.2        1 UNL1     -0.0649
     4 C         -2.106251   5.016022   6.199515 C.2        1 UNL1     -0.0542
     5 C         -3.186912   5.532034   6.956471 C.2        1 UNL1     0.0115
     6 C         -4.269863   6.644829   7.003666 C.3        1 UNL1     -0.0348
     7 C         -3.710084   4.703747   8.228171 C.2        1 UNL1     0.2441
     8 O         -3.430838   5.006344   9.380118 O.2        1 UNL1     -0.2702
     9 N         -4.7196   3.766985   7.946205 N.am        1 UNL1     -0.2772
     10 C         -4.167114   2.557843   7.591161 C.2        1 UNL1     0.1049
     11 C         -3.793249   2.436551   6.330313 C.2        1 UNL1     0.0801
     12 C         -2.45966   0.872678   8.299789 C.ar        1 UNL1     0.0753
     13 C         -1.957215   0.934709   6.961017 C.ar        1 UNL1     0.0305
     14 C         -2.690747   1.620325   5.899455 C.2        1 UNL1     0.0924
     15 N         -4.051017   3.225551   5.273165 N.pl3        1 UNL1     -0.3170
     16 C         -3.55986   2.55836   4.096784 C.3        1 UNL1     0.1275
     17 N         -2.429209   1.69309   4.597445 N.2        1 UNL1     -0.2557
     18 C         -4.652089   1.600311   3.631081 C.3        1 UNL1     0.0016
     19 C         -5.932944   2.390687   3.415891 C.3        1 UNL1     0.0026
     20 N         -5.683237   3.424193   2.420633 N.3        1 UNL1     -0.3018
     21 C         -4.605668   4.358836   2.751781 C.3        1 UNL1     0.0026
     22 C         -3.327808   3.543994   2.959144 C.3        1 UNL1     0.0016
     23 C         -6.900281   4.035315   1.924673 C.3        1 UNL1     0.0012
     24 C         -7.798542   4.471788   3.092737 C.3        1 UNL1     -0.0339
     25 C         -9.2883   4.325234   2.741741 C.3        1 UNL1     -0.0615
     26 C         -7.439949   3.691281   4.345334 C.3        1 UNL1     -0.0615
     27 C         -1.817333   0.116559   9.277448 C.ar        1 UNL1     0.1347
     28 C         -0.692175   -0.648429   9.026723 C.ar        1 UNL1     0.0342
     29 C         -0.187285   -0.533235   7.714099 C.ar        1 UNL1     0.1435
     30 C         -0.799418   0.248837   6.733856 C.ar        1 UNL1     0.0774
     31 O         0.837823   -1.300505   7.283452 O.3        1 UNL1     -0.4436
     32 C         0.74774   -1.255621   5.851411 C.3        1 UNL1     0.3143
     33 C         -0.009759   0.019769   5.541911 C.2        1 UNL1     0.2504
     34 C         -0.099532   -1.67455   9.951899 C.3        1 UNL1     -0.0327
     35 O         2.077588   -1.084075   5.34611 O.2        1 UNL1     -0.4528
     36 C         2.128686   -2.783787   1.95252 C.3        1 UNL1     0.0854
     37 C         1.222775   -2.514845   0.689777 C.3        1 UNL1     0.0236
     38 C         2.024672   -2.190222   -0.660529 C.3        1 UNL1     0.1131
     39 C         3.147368   -1.075852   -0.658352 C.3        1 UNL1     0.0200
     40 C         2.893305   0.3779   0.11914 C.3        1 UNL1     0.0661
     41 C         1.532632   1.375217   -0.058444 C.3        1 UNL1     0.0091
     42 C         0.706235   2.486136   1.145022 C.3        1 UNL1     0.0661
     43 C         -3.737793   1.568393   8.590674 C.2        1 UNL1     0.2131
     44 O         -4.458847   1.286416   9.530519 O.2        1 UNL1     -0.2851
     45 O         -2.345367   0.146411   10.566528 O.3        1 UNL1     -0.5056
     46 O         0.043412   0.704708   4.544974 O.2        1 UNL1     -0.2836
     47 C         1.948581   4.316901   2.635891 C.3        1 UNL1     -0.0566
     48 O         0.624294   3.630492   0.205421 O.3        1 UNL1     -0.3909
     49 C         0.442894   0.593914   -0.75811 C.3        1 UNL1     -0.0577
     50 O         3.249809   0.285441   1.483721 O.3        1 UNL1     -0.3910
     51 O         3.506685   -2.537245   1.785888 O.3        1 UNL1     -0.3753
     52 C         -0.099789   -1.772425   1.070019 C.3        1 UNL1     -0.0564
     53 O         1.180847   -2.285973   -1.897912 O.3        1 UNL1     -0.4608
     54 C         1.459098   -1.686559   -3.098416 C.2        1 UNL1     0.3042
     55 O         1.201753   -2.112933   -4.223501 O.2        1 UNL1     -0.2512
     56 C         2.100565   -0.335089   -2.961438 C.3        1 UNL1     0.0332
     57 C         4.551897   -1.806713   -0.431823 C.3        1 UNL1     -0.0567
     58 C         -0.118505   -2.465225   5.4295 C.3        1 UNL1     0.0210
     59 C         4.351747   -3.196625   2.72767 C.3        1 UNL1     0.0372
     60 C         1.711296   -2.069215   3.189586 C.2        1 UNL1     -0.0208
     61 C         2.435362   -1.397919   4.086155 C.2        1 UNL1     0.0882
     62 H         0.855679   2.597383   3.294026 H        1 UNL1     0.0365
     63 H         -0.193031   3.333783   4.884041 H        1 UNL1     0.0576
     64 H         -1.641421   5.95169   4.145458 H        1 UNL1     0.0615
     65 H         -1.626195   4.183025   6.72023 H        1 UNL1     0.0622
     66 H         1.996826   -3.854297   2.163869 H        1 UNL1     0.0645
     67 H         0.789298   -3.502663   0.455527 H        1 UNL1     0.0362
     68 H         2.559807   -3.143274   -0.790311 H        1 UNL1     0.0741
     69 H         3.335488   -0.769354   -1.678684 H        1 UNL1     0.0359
     70 H         3.700657   0.981932   -0.337356 H        1 UNL1     0.0600
     71 H         1.883278   2.037069   -0.874506 H        1 UNL1     0.0348
     72 H         1.717176   2.309406   1.540093 H        1 UNL1     0.0602
     73 H         0.683741   -2.262069   3.374478 H        1 UNL1     0.0628
     74 H         3.477571   -1.109299   3.94567 H        1 UNL1     0.1022
     75 H         -4.07322   7.416658   6.220949 H        1 UNL1     0.0279
     76 H         -5.289562   6.339206   6.780334 H        1 UNL1     0.0279
     77 H         -4.219177   7.248914   7.921388 H        1 UNL1     0.0279
     78 H         -5.277459   4.091775   7.159197 H        1 UNL1     0.1553
     79 H         -4.798341   3.894682   5.246653 H        1 UNL1     0.1484
     80 H         -4.325476   1.107643   2.707302 H        1 UNL1     0.0317
     81 H         -4.816986   0.806961   4.368004 H        1 UNL1     0.0317
     82 H         -6.304803   2.826844   4.354721 H        1 UNL1     0.0428
     83 H         -6.698864   1.688158   3.085936 H        1 UNL1     0.0428
     84 H         -4.385334   5.074758   1.953834 H        1 UNL1     0.0428
     85 H         -4.862736   4.990405   3.61338 H        1 UNL1     0.0428
     86 H         -2.538896   4.265085   3.067003 H        1 UNL1     0.0317
     87 H         -3.065153   3.01697   2.033749 H        1 UNL1     0.0317
     88 H         -6.623684   4.925615   1.344884 H        1 UNL1     0.0429
     89 H         -7.435906   3.361562   1.243544 H        1 UNL1     0.0429
     90 H         -7.596906   5.523709   3.327299 H        1 UNL1     0.0308
     91 H         -9.492916   3.358743   2.271496 H        1 UNL1     0.0233
     92 H         -9.907699   4.427307   3.635909 H        1 UNL1     0.0233
     93 H         -9.630652   5.097931   2.042763 H        1 UNL1     0.0233
     94 H         -8.281534   3.694831   5.046447 H        1 UNL1     0.0233
     95 H         -7.220309   2.651438   4.087562 H        1 UNL1     0.0233
     96 H         -6.56943   4.121737   4.848198 H        1 UNL1     0.0233
     97 H         0.366136   -1.219138   10.820797 H        1 UNL1     0.0280
     98 H         -0.857642   -2.364822   10.344391 H        1 UNL1     0.0280
     99 H         0.666736   -2.257053   9.414667 H        1 UNL1     0.0280
     100 H         -3.188398   -0.262604   10.65387 H        1 UNL1     0.2922
     101 H         1.979806   4.870681   1.697803 H        1 UNL1     0.0236
     102 H         2.838573   3.705119   2.77949 H        1 UNL1     0.0236
     103 H         2.009784   5.090338   3.419627 H        1 UNL1     0.0236
     104 H         1.445787   4.150864   0.302033 H        1 UNL1     0.2098
     105 H         -0.338379   1.208439   -1.198317 H        1 UNL1     0.0234
     106 H         0.800559   -0.138202   -1.481994 H        1 UNL1     0.0234
     107 H         0.0   -0.0   0.0 H        1 UNL1     0.0234
     108 H         2.81784   1.028523   1.947402 H        1 UNL1     0.2098
     109 H         0.09089   -0.800246   1.545646 H        1 UNL1     0.0234
     110 H         -0.77747   -1.637884   0.220083 H        1 UNL1     0.0234
     111 H         -0.692329   -2.346705   1.79462 H        1 UNL1     0.0234
     112 H         3.171638   -0.449317   -2.768821 H        1 UNL1     0.0342
     113 H         1.925261   0.291826   -3.834415 H        1 UNL1     0.0342
     114 H         1.654354   0.170133   -2.093792 H        1 UNL1     0.0342
     115 H         5.365053   -1.306286   -0.975457 H        1 UNL1     0.0234
     116 H         4.851845   -1.877168   0.61561 H        1 UNL1     0.0234
     117 H         4.596031   -2.81968   -0.867588 H        1 UNL1     0.0234
     118 H         -0.776686   -2.226188   4.575881 H        1 UNL1     0.0309
     119 H         0.473151   -3.353863   5.187696 H        1 UNL1     0.0309
     120 H         -0.821095   -2.772383   6.211885 H        1 UNL1     0.0309
     121 H         5.383434   -3.023081   2.422938 H        1 UNL1     0.0524
     122 H         4.234842   -2.794643   3.747856 H        1 UNL1     0.0524
     123 H         4.139257   -4.261866   2.741943 H        1 UNL1     0.0524
@<TRIPOS>BOND
     1     1     2    1
     2     1    42    1
     3     2     3    2
     4     3     4    1
     5     4     5    2
     6     5     7    1
     7     6    75    1
     8     6    76    1
     9     6    77    1
    10     7     9   am
    11     9    10    1
    12    10    11    2
    13    10    43    1
    14    11    14    1
    15    11    15    1
    16    12    13   ar
    17    12    27   ar
    18    12    43    1
    19    13    14    1
    20    13    30   ar
    21    14    17    2
    22    15    16    1
    23    16    17    1
    24    16    18    1
    25    16    22    1
    26    18    19    1
    27    19    20    1
    28    20    21    1
    29    21    22    1
    30    23    24    1
    31    23    88    1
    32    23    89    1
    33    24    25    1
    34    24    26    1
    35    24    90    1
    36    25    91    1
    37    25    92    1
    38    25    93    1
    39    26    94    1
    40    26    95    1
    41    26    96    1
    42    27    28   ar
    43    28    29   ar
    44    29    30   ar
    45    29    31    1
    46    30    33    1
    47    31    32    1
    48    32    33    1
    49    32    35    1
    50    34    97    1
    51    34    98    1
    52    34    99    1
    53    35    61    1
    54    36    37    1
    55    36    60    1
    56    37    38    1
    57    38    39    1
    58    39    40    1
    59    40    41    1
    60    41    42    1
    61    45   100    1
    62    47   101    1
    63    47   102    1
    64    47   103    1
    65    48   104    1
    66    49   105    1
    67    49   106    1
    68    49   107    1
    69    50   108    1
    70    51    59    1
    71    52   109    1
    72    52   110    1
    73    52   111    1
    74    53    54    1
    75    54    55    2
    76    54    56    1
    77    56   112    1
    78    56   113    1
    79    56   114    1
    80    57   115    1
    81    57   116    1
    82    57   117    1
    83    58   118    1
    84    58   119    1
    85    58   120    1
    86    59   121    1
    87    59   122    1
    88    59   123    1
    89    60    61    2
    90     1    47    1
    91     1    62    1
    92     2    63    1
    93     3    64    1
    94     4    65    1
    95     5     6    1
    96     7     8    2
    97     9    78    1
    98    15    79    1
    99    18    80    1
   100    18    81    1
   101    19    82    1
   102    19    83    1
   103    20    23    1
   104    21    84    1
   105    21    85    1
   106    22    86    1
   107    22    87    1
   108    27    45    1
   109    28    34    1
   110    32    58    1
   111    33    46    2
   112    36    51    1
   113    36    66    1
   114    37    52    1
   115    37    67    1
   116    38    53    1
   117    38    68    1
   118    42    48    1
   119    42    72    1
   120    43    44    2
   121    60    73    1
   122    61    74    1
   123    39    69    1
   124    39    57    1
   125    40    70    1
   126    40    50    1
   127    41    71    1
   128    41    49    1
