@<TRIPOS>MOLECULE
*****
 123 128 0 0 0
SMALL
GASTEIGER

@<TRIPOS>ATOM
     1 C         5.165967   1.752058   0.492286 C.3        1 UNL1     0.0009
     2 C         6.603572   2.555658   -0.358923 C.2        1 UNL1     -0.0787
     3 C         7.886387   2.45556   -1.022558 C.2        1 UNL1     -0.0649
     4 C         8.764495   3.68833   -1.781216 C.2        1 UNL1     -0.0542
     5 C         9.785712   3.978038   -2.719439 C.2        1 UNL1     0.0115
     6 C         10.915279   3.349947   -3.581358 C.3        1 UNL1     -0.0348
     7 C         9.881433   5.459216   -3.330943 C.2        1 UNL1     0.2441
     8 O         10.704554   6.282416   -2.954992 O.2        1 UNL1     -0.2702
     9 N         9.132748   5.661902   -4.503351 N.am        1 UNL1     -0.2772
     10 C         7.849489   6.049275   -4.192685 C.2        1 UNL1     0.1049
     11 C         7.003598   5.07862   -3.898545 C.2        1 UNL1     0.0801
     12 C         6.548691   7.660402   -2.789287 C.ar        1 UNL1     0.0753
     13 C         5.789362   6.53381   -2.338933 C.ar        1 UNL1     0.0305
     14 C         5.907566   5.22592   -2.979636 C.2        1 UNL1     0.0924
     15 N         7.126834   3.749137   -4.052866 N.pl3        1 UNL1     -0.3170
     16 C         5.856727   3.15067   -3.73835 C.3        1 UNL1     0.1275
     17 N         5.218704   4.109096   -2.762609 N.2        1 UNL1     -0.2557
     18 C         5.005586   3.205107   -5.003379 C.3        1 UNL1     0.0016
     19 C         5.762212   2.517344   -6.128585 C.3        1 UNL1     0.0026
     20 N         6.032241   1.140668   -5.737591 N.3        1 UNL1     -0.3018
     21 C         6.793954   0.984797   -4.496677 C.3        1 UNL1     0.0026
     22 C         6.013473   1.678955   -3.379141 C.3        1 UNL1     0.0016
     23 C         6.478507   0.31743   -6.843832 C.3        1 UNL1     0.0012
     24 C         5.324478   0.064205   -7.826608 C.3        1 UNL1     -0.0339
     25 C         5.351321   1.063353   -8.994957 C.3        1 UNL1     -0.0615
     26 C         5.364981   -1.372201   -8.31842 C.3        1 UNL1     -0.0615
     27 C         6.342914   8.929894   -2.254343 C.ar        1 UNL1     0.1347
     28 C         5.382467   9.202471   -1.296589 C.ar        1 UNL1     0.0342
     29 C         4.680619   8.069408   -0.833187 C.ar        1 UNL1     0.1435
     30 C         4.901135   6.785706   -1.333887 C.ar        1 UNL1     0.0774
     31 O         3.638431   8.185613   0.018487 O.3        1 UNL1     -0.4436
     32 C         2.917318   6.952088   -0.120384 C.3        1 UNL1     0.3143
     33 C         3.931636   5.957454   -0.647711 C.2        1 UNL1     0.2504
     34 C         4.934619   10.569957   -0.861257 C.3        1 UNL1     -0.0327
     35 O         2.555022   6.519841   1.196869 O.2        1 UNL1     -0.4528
     36 C         -0.686902   4.585304   0.802432 C.3        1 UNL1     0.0854
     37 C         -0.99061   3.321524   -0.090957 C.3        1 UNL1     0.0236
     38 C         -1.591857   2.063036   0.700533 C.3        1 UNL1     0.1131
     39 C         -0.867707   1.536839   2.004755 C.3        1 UNL1     0.0200
     40 C         0.793472   1.391943   2.04868 C.3        1 UNL1     0.0661
     41 C         1.754656   0.619356   0.883843 C.3        1 UNL1     0.0091
     42 C         3.462898   0.980474   0.3209 C.3        1 UNL1     0.0661
     43 C         7.500315   7.449101   -3.908226 C.2        1 UNL1     0.2131
     44 O         7.900903   8.344802   -4.629327 O.2        1 UNL1     -0.2851
     45 O         7.155492   9.963651   -2.715322 O.3        1 UNL1     -0.5056
     46 O         3.947808   4.754386   -0.512735 O.2        1 UNL1     -0.2836
     47 C         5.560509   1.327697   1.932507 C.3        1 UNL1     -0.0566
     48 O         3.911772   -0.430203   0.408193 O.3        1 UNL1     -0.3909
     49 C         0.922219   0.382208   -0.35644 C.3        1 UNL1     -0.0577
     50 O         1.392774   2.611345   2.438064 O.3        1 UNL1     -0.3910
     51 O         -0.812817   4.400426   2.194336 O.3        1 UNL1     -0.3753
     52 C         0.055452   3.157366   -1.241502 C.3        1 UNL1     -0.0564
     53 O         -2.192931   1.02075   -0.196503 O.3        1 UNL1     -0.4608
     54 C         -2.415301   -0.288135   0.143059 C.2        1 UNL1     0.3042
     55 O         -1.84223   -1.282499   -0.300414 O.2        1 UNL1     -0.2512
     56 C         -3.446084   -0.462803   1.221804 C.3        1 UNL1     0.0332
     57 C         -1.59064   2.209994   3.262691 C.3        1 UNL1     -0.0567
     58 C         1.843517   7.193083   -1.206848 C.3        1 UNL1     0.0210
     59 C         -1.158281   5.575514   2.926244 C.3        1 UNL1     0.0372
     60 C         0.642218   5.213984   0.571425 C.2        1 UNL1     -0.0208
     61 C         1.553848   5.652513   1.440544 C.2        1 UNL1     0.0882
     62 H         4.689638   2.736384   0.575487 H        1 UNL1     0.0365
     63 H         6.33687   3.609737   -0.257644 H        1 UNL1     0.0576
     64 H         8.344627   1.488085   -1.239623 H        1 UNL1     0.0615
     65 H         8.276672   4.604781   -1.438243 H        1 UNL1     0.0622
     66 H         -1.431354   5.330524   0.488609 H        1 UNL1     0.0645
     67 H         -1.855424   3.628499   -0.704489 H        1 UNL1     0.0362
     68 H         -2.53953   2.500848   1.049471 H        1 UNL1     0.0741
     69 H         -1.199193   0.526328   2.203227 H        1 UNL1     0.0359
     70 H         0.904254   0.734718   2.932332 H        1 UNL1     0.0600
     71 H         1.797965   -0.400304   1.314396 H        1 UNL1     0.0348
     72 H         3.355551   1.472054   1.298724 H        1 UNL1     0.0602
     73 H         0.761452   5.407659   -0.465648 H        1 UNL1     0.0628
     74 H         1.534923   5.44557   2.511083 H        1 UNL1     0.1022
     75 H         10.95988   2.245221   -3.424433 H        1 UNL1     0.0279
     76 H         10.803075   3.428945   -4.660357 H        1 UNL1     0.0279
     77 H         11.919823   3.656088   -3.254449 H        1 UNL1     0.0279
     78 H         9.071711   4.790112   -5.025208 H        1 UNL1     0.1553
     79 H         7.793062   3.319198   -4.667867 H        1 UNL1     0.1484
     80 H         4.04419   2.714564   -4.808828 H        1 UNL1     0.0317
     81 H         4.779037   4.240842   -5.278297 H        1 UNL1     0.0317
     82 H         6.693051   3.048058   -6.377169 H        1 UNL1     0.0428
     83 H         5.138244   2.569192   -7.021348 H        1 UNL1     0.0428
     84 H         6.914166   -0.057036   -4.183714 H        1 UNL1     0.0428
     85 H         7.824077   1.352774   -4.600392 H        1 UNL1     0.0428
     86 H         6.528747   1.431912   -2.469498 H        1 UNL1     0.0317
     87 H         5.034002   1.201463   -3.253704 H        1 UNL1     0.0317
     88 H         7.275119   0.857625   -7.371936 H        1 UNL1     0.0429
     89 H         6.910909   -0.626984   -6.489029 H        1 UNL1     0.0429
     90 H         4.37087   0.17248   -7.296399 H        1 UNL1     0.0308
     91 H         6.300982   1.016839   -9.536327 H        1 UNL1     0.0233
     92 H         4.532035   0.866584   -9.690415 H        1 UNL1     0.0233
     93 H         5.226207   2.100361   -8.660598 H        1 UNL1     0.0233
     94 H         4.669864   -1.504901   -9.154506 H        1 UNL1     0.0233
     95 H         6.369904   -1.617418   -8.673327 H        1 UNL1     0.0233
     96 H         5.089754   -2.07336   -7.52558 H        1 UNL1     0.0233
     97 H         4.1403   10.52252   -0.122314 H        1 UNL1     0.0280
     98 H         5.74657   11.141877   -0.39339 H        1 UNL1     0.0280
     99 H         4.561944   11.13134   -1.733643 H        1 UNL1     0.0280
     100 H         6.688669   10.712727   -3.041795 H        1 UNL1     0.2922
     101 H         4.697146   0.895563   2.437997 H        1 UNL1     0.0236
     102 H         6.010272   2.135193   2.509262 H        1 UNL1     0.0236
     103 H         6.316998   0.525257   1.935224 H        1 UNL1     0.0236
     104 H         4.330169   -0.553016   1.282739 H        1 UNL1     0.2098
     105 H         0.710075   1.278968   -0.933178 H        1 UNL1     0.0234
     106 H         1.292723   -0.407988   -1.009314 H        1 UNL1     0.0234
     107 H         0.0   -0.0   0.0 H        1 UNL1     0.0234
     108 H         1.192565   3.267848   1.743306 H        1 UNL1     0.2098
     109 H         1.079809   3.045529   -0.859537 H        1 UNL1     0.0234
     110 H         -0.17583   2.327829   -1.918347 H        1 UNL1     0.0234
     111 H         0.077258   4.037901   -1.897344 H        1 UNL1     0.0234
     112 H         -3.571417   -1.526008   1.44815 H        1 UNL1     0.0342
     113 H         -3.198736   0.101325   2.119814 H        1 UNL1     0.0342
     114 H         -4.405598   -0.083486   0.844158 H        1 UNL1     0.0342
     115 H         -2.65479   1.941427   3.314115 H        1 UNL1     0.0234
     116 H         -1.140309   1.952939   4.223511 H        1 UNL1     0.0234
     117 H         -1.651356   3.310053   3.198465 H        1 UNL1     0.0234
     118 H         0.941745   7.681152   -0.797456 H        1 UNL1     0.0309
     119 H         2.213847   7.77822   -2.054594 H        1 UNL1     0.0309
     120 H         1.455796   6.259527   -1.629047 H        1 UNL1     0.0309
     121 H         -0.354084   6.297836   2.788857 H        1 UNL1     0.0524
     122 H         -2.088088   6.0398   2.557552 H        1 UNL1     0.0524
     123 H         -1.275309   5.340865   3.980445 H        1 UNL1     0.0524
@<TRIPOS>BOND
     1     1     2    1
     2     1    42    1
     3     2     3    2
     4     3     4    1
     5     4     5    2
     6     5     7    1
     7     6    75    1
     8     6    76    1
     9     6    77    1
    10     7     9   am
    11     9    10    1
    12    10    11    2
    13    10    43    1
    14    11    14    1
    15    11    15    1
    16    12    13   ar
    17    12    27   ar
    18    12    43    1
    19    13    14    1
    20    13    30   ar
    21    14    17    2
    22    15    16    1
    23    16    17    1
    24    16    18    1
    25    16    22    1
    26    18    19    1
    27    19    20    1
    28    20    21    1
    29    21    22    1
    30    23    24    1
    31    23    88    1
    32    23    89    1
    33    24    25    1
    34    24    26    1
    35    24    90    1
    36    25    91    1
    37    25    92    1
    38    25    93    1
    39    26    94    1
    40    26    95    1
    41    26    96    1
    42    27    28   ar
    43    28    29   ar
    44    29    30   ar
    45    29    31    1
    46    30    33    1
    47    31    32    1
    48    32    33    1
    49    32    35    1
    50    34    97    1
    51    34    98    1
    52    34    99    1
    53    35    61    1
    54    36    37    1
    55    36    60    1
    56    37    38    1
    57    38    39    1
    58    39    40    1
    59    40    41    1
    60    41    42    1
    61    45   100    1
    62    47   101    1
    63    47   102    1
    64    47   103    1
    65    48   104    1
    66    49   105    1
    67    49   106    1
    68    49   107    1
    69    50   108    1
    70    51    59    1
    71    52   109    1
    72    52   110    1
    73    52   111    1
    74    53    54    1
    75    54    55    2
    76    54    56    1
    77    56   112    1
    78    56   113    1
    79    56   114    1
    80    57   115    1
    81    57   116    1
    82    57   117    1
    83    58   118    1
    84    58   119    1
    85    58   120    1
    86    59   121    1
    87    59   122    1
    88    59   123    1
    89    60    61    2
    90     1    47    1
    91     1    62    1
    92     2    63    1
    93     3    64    1
    94     4    65    1
    95     5     6    1
    96     7     8    2
    97     9    78    1
    98    15    79    1
    99    18    80    1
   100    18    81    1
   101    19    82    1
   102    19    83    1
   103    20    23    1
   104    21    84    1
   105    21    85    1
   106    22    86    1
   107    22    87    1
   108    27    45    1
   109    28    34    1
   110    32    58    1
   111    33    46    2
   112    36    51    1
   113    36    66    1
   114    37    52    1
   115    37    67    1
   116    38    53    1
   117    38    68    1
   118    42    48    1
   119    42    72    1
   120    43    44    2
   121    60    73    1
   122    61    74    1
   123    39    69    1
   124    39    57    1
   125    40    70    1
   126    40    50    1
   127    41    71    1
   128    41    49    1
