@<TRIPOS>MOLECULE
*****
 123 128 0 0 0
SMALL
GASTEIGER

@<TRIPOS>ATOM
     1 C         5.167291   1.747741   0.493739 C.3        1 UNL1     0.0009
     2 C         6.604401   2.553947   -0.35584 C.2        1 UNL1     -0.0787
     3 C         7.886489   2.45581   -1.02117 C.2        1 UNL1     -0.0649
     4 C         8.764399   3.691086   -1.775971 C.2        1 UNL1     -0.0542
     5 C         9.784792   3.983932   -2.714117 C.2        1 UNL1     0.0115
     6 C         10.91318   3.358642   -3.579608 C.3        1 UNL1     -0.0348
     7 C         9.880582   5.467412   -3.320006 C.2        1 UNL1     0.2441
     8 O         10.704474   6.288774   -2.941729 O.2        1 UNL1     -0.2702
     9 N         9.130793   5.674964   -4.490856 N.am        1 UNL1     -0.2772
     10 C         7.848035   6.061734   -4.177384 C.2        1 UNL1     0.1049
     11 C         7.001989   5.090347   -3.88612 C.2        1 UNL1     0.0801
     12 C         6.54943   7.668046   -2.766454 C.ar        1 UNL1     0.0753
     13 C         5.790034   6.54008   -2.319667 C.ar        1 UNL1     0.0305
     14 C         5.906968   5.234614   -2.965527 C.2        1 UNL1     0.0924
     15 N         7.124443   3.761411   -4.04569 N.pl3        1 UNL1     -0.3170
     16 C         5.854378   3.162329   -3.732181 C.3        1 UNL1     0.1275
     17 N         5.217804   4.117283   -2.7521 N.2        1 UNL1     -0.2557
     18 C         5.001969   3.222038   -4.996118 C.3        1 UNL1     0.0016
     19 C         5.757119   2.538264   -6.124741 C.3        1 UNL1     0.0026
     20 N         6.026902   1.159966   -5.739332 N.3        1 UNL1     -0.3018
     21 C         6.789811   0.998958   -4.49981 C.3        1 UNL1     0.0026
     22 C         6.0108   1.689166   -3.378807 C.3        1 UNL1     0.0016
     23 C         6.471649   0.340791   -6.849195 C.3        1 UNL1     0.0012
     24 C         5.316496   0.091893   -7.831756 C.3        1 UNL1     -0.0339
     25 C         5.342612   1.095524   -8.996273 C.3        1 UNL1     -0.0615
     26 C         5.355821   -1.342625   -8.329141 C.3        1 UNL1     -0.0615
     27 C         6.344798   8.935562   -2.226411 C.ar        1 UNL1     0.1347
     28 C         5.385459   9.204893   -1.26663 C.ar        1 UNL1     0.0342
     29 C         4.683553   8.070379   -0.806879 C.ar        1 UNL1     0.1435
     30 C         4.902954   6.788514   -1.312748 C.ar        1 UNL1     0.0774
     31 O         3.642292   8.183785   0.046304 O.3        1 UNL1     -0.4436
     32 C         2.920458   6.951141   -0.09658 C.3        1 UNL1     0.3143
     33 C         3.933769   5.958075   -0.628776 C.2        1 UNL1     0.2504
     34 C         4.938699   10.570899   -0.825572 C.3        1 UNL1     -0.0327
     35 O         2.559308   6.513989   1.219369 O.2        1 UNL1     -0.4528
     36 C         -0.683927   4.582496   0.820802 C.3        1 UNL1     0.0854
     37 C         -0.989143   3.32231   -0.077139 C.3        1 UNL1     0.0236
     38 C         -1.59017   2.061062   0.710111 C.3        1 UNL1     0.1131
     39 C         -0.864933   1.529504   2.011551 C.3        1 UNL1     0.0200
     40 C         0.796221   1.383667   2.053215 C.3        1 UNL1     0.0661
     41 C         1.75585   0.615127   0.884425 C.3        1 UNL1     0.0091
     42 C         3.463685   0.977617   0.321126 C.3        1 UNL1     0.0661
     43 C         7.49981   7.460616   -3.887174 C.2        1 UNL1     0.2131
     44 O         7.90008   8.358903   -4.605228 O.2        1 UNL1     -0.2851
     45 O         7.157389   9.97071   -2.684235 O.3        1 UNL1     -0.5056
     46 O         3.949514   4.754488   -0.498454 O.2        1 UNL1     -0.2836
     47 C         5.563106   1.317649   1.931908 C.3        1 UNL1     -0.0566
     48 O         3.911985   -0.433595   0.402522 O.3        1 UNL1     -0.3909
     49 C         0.922033   0.383149   -0.355909 C.3        1 UNL1     -0.0577
     50 O         1.396494   2.601279   2.446681 O.3        1 UNL1     -0.3910
     51 O         -0.808505   4.392314   2.212111 O.3        1 UNL1     -0.3753
     52 C         0.055665   3.162102   -1.22938 C.3        1 UNL1     -0.0564
     53 O         -2.192651   1.022521   -0.19032 O.3        1 UNL1     -0.4608
     54 C         -2.427392   -0.28432   0.148786 C.2        1 UNL1     0.3042
     55 O         -1.858318   -1.28338   -0.289246 O.2        1 UNL1     -0.2512
     56 C         -3.46779   -0.450195   1.219661 C.3        1 UNL1     0.0332
     57 C         -1.586262   2.198142   3.272813 C.3        1 UNL1     -0.0567
     58 C         1.845659   7.196822   -1.181005 C.3        1 UNL1     0.0210
     59 C         -1.152667   5.564732   2.948896 C.3        1 UNL1     0.0372
     60 C         0.645251   5.211443   0.590857 C.2        1 UNL1     -0.0208
     61 C         1.557975   5.646194   1.460725 C.2        1 UNL1     0.0882
     62 H         4.691509   2.731961   0.581222 H        1 UNL1     0.0365
     63 H         6.338298   3.607752   -0.250226 H        1 UNL1     0.0576
     64 H         8.344052   1.488966   -1.242432 H        1 UNL1     0.0615
     65 H         8.277358   4.606435   -1.428968 H        1 UNL1     0.0622
     66 H         -1.428349   5.329267   0.510617 H        1 UNL1     0.0645
     67 H         -1.85444   3.632052   -0.688597 H        1 UNL1     0.0362
     68 H         -2.53728   2.497967   1.061704 H        1 UNL1     0.0741
     69 H         -1.196691   0.51839   2.206467 H        1 UNL1     0.0359
     70 H         0.907599   0.722988   2.934213 H        1 UNL1     0.0600
     71 H         1.799121   -0.406205   1.310999 H        1 UNL1     0.0348
     72 H         3.357569   1.465475   1.300947 H        1 UNL1     0.0602
     73 H         0.763514   5.409058   -0.445584 H        1 UNL1     0.0628
     74 H         1.540049   5.435135   2.530477 H        1 UNL1     0.1022
     75 H         10.957424   2.253299   -3.426987 H        1 UNL1     0.0279
     76 H         10.799909   3.441852   -4.658179 H        1 UNL1     0.0279
     77 H         11.918202   3.663054   -3.252551 H        1 UNL1     0.0279
     78 H         9.068813   4.805221   -5.016005 H        1 UNL1     0.1553
     79 H         7.789839   3.333536   -4.663026 H        1 UNL1     0.1484
     80 H         4.040541   2.731196   -4.802473 H        1 UNL1     0.0317
     81 H         4.775624   4.25893   -5.266809 H        1 UNL1     0.0317
     82 H         6.687953   3.069499   -6.372231 H        1 UNL1     0.0428
     83 H         5.132263   2.593844   -7.016658 H        1 UNL1     0.0428
     84 H         6.909854   -0.044129   -4.190988 H        1 UNL1     0.0428
     85 H         7.82   1.366853   -4.603162 H        1 UNL1     0.0428
     86 H         6.526889   1.43838   -2.470652 H        1 UNL1     0.0317
     87 H         5.031233   1.211651   -3.254208 H        1 UNL1     0.0317
     88 H         7.267974   0.882645   -7.376029 H        1 UNL1     0.0429
     89 H         6.90397   -0.605185   -6.498478 H        1 UNL1     0.0429
     90 H         4.363482   0.198568   -7.300157 H        1 UNL1     0.0308
     91 H         6.292884   1.052833   -9.536887 H        1 UNL1     0.0233
     92 H         4.524369   0.899879   -9.693274 H        1 UNL1     0.0233
     93 H         5.215244   2.131019   -8.658097 H        1 UNL1     0.0233
     94 H         4.659787   -1.471778   -9.16502 H        1 UNL1     0.0233
     95 H         6.360265   -1.586941   -8.686021 H        1 UNL1     0.0233
     96 H         5.081077   -2.046707   -7.538728 H        1 UNL1     0.0233
     97 H         4.145115   10.520984   -0.086002 H        1 UNL1     0.0280
     98 H         5.751397   11.140633   -0.356336 H        1 UNL1     0.0280
     99 H         4.565395   11.135814   -1.695405 H        1 UNL1     0.0280
     100 H         6.690589   10.721518   -3.006738 H        1 UNL1     0.2922
     101 H         4.700058   0.883971   2.436614 H        1 UNL1     0.0236
     102 H         6.013838   2.122706   2.51131 H        1 UNL1     0.0236
     103 H         6.319221   0.514851   1.930758 H        1 UNL1     0.0236
     104 H         4.331219   -0.559972   1.276159 H        1 UNL1     0.2098
     105 H         0.709721   1.282225   -0.928969 H        1 UNL1     0.0234
     106 H         1.291498   -0.404696   -1.012204 H        1 UNL1     0.0234
     107 H         0.0   -0.0   0.0 H        1 UNL1     0.0234
     108 H         1.198876   3.259632   1.752933 H        1 UNL1     0.2098
     109 H         1.080359   3.048316   -0.8489 H        1 UNL1     0.0234
     110 H         -0.1767   2.335287   -1.90918 H        1 UNL1     0.0234
     111 H         0.077213   4.045148   -1.881846 H        1 UNL1     0.0234
     112 H         -3.600546   -1.512012   1.448278 H        1 UNL1     0.0342
     113 H         -3.224764   0.115451   2.117896 H        1 UNL1     0.0342
     114 H         -4.422202   -0.067049   0.833059 H        1 UNL1     0.0342
     115 H         -2.65594   1.950032   3.310487 H        1 UNL1     0.0234
     116 H         -1.150157   1.917961   4.23373 H        1 UNL1     0.0234
     117 H         -1.624661   3.300022   3.224571 H        1 UNL1     0.0234
     118 H         0.944536   7.68373   -0.768812 H        1 UNL1     0.0309
     119 H         2.215396   7.78505   -2.026869 H        1 UNL1     0.0309
     120 H         1.457068   6.265082   -1.606402 H        1 UNL1     0.0309
     121 H         -0.348272   6.287203   2.81347 H        1 UNL1     0.0524
     122 H         -2.082633   6.030869   2.58295 H        1 UNL1     0.0524
     123 H         -1.268727   5.326076   4.002304 H        1 UNL1     0.0524
@<TRIPOS>BOND
     1     1     2    1
     2     1    42    1
     3     2     3    2
     4     3     4    1
     5     4     5    2
     6     5     7    1
     7     6    75    1
     8     6    76    1
     9     6    77    1
    10     7     9   am
    11     9    10    1
    12    10    11    2
    13    10    43    1
    14    11    14    1
    15    11    15    1
    16    12    13   ar
    17    12    27   ar
    18    12    43    1
    19    13    14    1
    20    13    30   ar
    21    14    17    2
    22    15    16    1
    23    16    17    1
    24    16    18    1
    25    16    22    1
    26    18    19    1
    27    19    20    1
    28    20    21    1
    29    21    22    1
    30    23    24    1
    31    23    88    1
    32    23    89    1
    33    24    25    1
    34    24    26    1
    35    24    90    1
    36    25    91    1
    37    25    92    1
    38    25    93    1
    39    26    94    1
    40    26    95    1
    41    26    96    1
    42    27    28   ar
    43    28    29   ar
    44    29    30   ar
    45    29    31    1
    46    30    33    1
    47    31    32    1
    48    32    33    1
    49    32    35    1
    50    34    97    1
    51    34    98    1
    52    34    99    1
    53    35    61    1
    54    36    37    1
    55    36    60    1
    56    37    38    1
    57    38    39    1
    58    39    40    1
    59    40    41    1
    60    41    42    1
    61    45   100    1
    62    47   101    1
    63    47   102    1
    64    47   103    1
    65    48   104    1
    66    49   105    1
    67    49   106    1
    68    49   107    1
    69    50   108    1
    70    51    59    1
    71    52   109    1
    72    52   110    1
    73    52   111    1
    74    53    54    1
    75    54    55    2
    76    54    56    1
    77    56   112    1
    78    56   113    1
    79    56   114    1
    80    57   115    1
    81    57   116    1
    82    57   117    1
    83    58   118    1
    84    58   119    1
    85    58   120    1
    86    59   121    1
    87    59   122    1
    88    59   123    1
    89    60    61    2
    90     1    47    1
    91     1    62    1
    92     2    63    1
    93     3    64    1
    94     4    65    1
    95     5     6    1
    96     7     8    2
    97     9    78    1
    98    15    79    1
    99    18    80    1
   100    18    81    1
   101    19    82    1
   102    19    83    1
   103    20    23    1
   104    21    84    1
   105    21    85    1
   106    22    86    1
   107    22    87    1
   108    27    45    1
   109    28    34    1
   110    32    58    1
   111    33    46    2
   112    36    51    1
   113    36    66    1
   114    37    52    1
   115    37    67    1
   116    38    53    1
   117    38    68    1
   118    42    48    1
   119    42    72    1
   120    43    44    2
   121    60    73    1
   122    61    74    1
   123    39    69    1
   124    39    57    1
   125    40    70    1
   126    40    50    1
   127    41    71    1
   128    41    49    1
