@<TRIPOS>MOLECULE
*****
 123 128 0 0 0
SMALL
GASTEIGER

@<TRIPOS>ATOM
     1 C         5.037426   2.054978   0.642775 C.3        1 UNL1     0.0009
     2 C         6.423314   2.995983   -0.151492 C.2        1 UNL1     -0.0787
     3 C         7.718605   3.017347   -0.797875 C.2        1 UNL1     -0.0649
     4 C         8.513887   4.341459   -1.491138 C.2        1 UNL1     -0.0542
     5 C         9.523341   4.743782   -2.400102 C.2        1 UNL1     0.0115
     6 C         10.707098   4.236214   -3.268674 C.3        1 UNL1     -0.0348
     7 C         9.518275   6.252385   -2.948809 C.2        1 UNL1     0.2441
     8 O         10.273861   7.116698   -2.526223 O.2        1 UNL1     -0.2702
     9 N         8.772184   6.449217   -4.123865 N.am        1 UNL1     -0.2772
     10 C         7.460028   6.728913   -3.818351 C.2        1 UNL1     0.1049
     11 C         6.683755   5.687853   -3.577902 C.2        1 UNL1     0.0801
     12 C         6.026381   8.18085   -2.371331 C.ar        1 UNL1     0.0753
     13 C         5.34581   6.98413   -1.979807 C.ar        1 UNL1     0.0305
     14 C         5.567924   5.716369   -2.671544 C.2        1 UNL1     0.0924
     15 N         6.906094   4.378503   -3.784531 N.pl3        1 UNL1     -0.3170
     16 C         5.679242   3.676633   -3.515331 C.3        1 UNL1     0.1275
     17 N         4.959967   4.544308   -2.511585 N.2        1 UNL1     -0.2557
     18 C         4.843057   3.722186   -4.790644 C.3        1 UNL1     0.0016
     19 C         5.662732   3.139117   -5.930712 C.3        1 UNL1     0.0026
     20 N         6.027766   1.770493   -5.592117 N.3        1 UNL1     -0.3018
     21 C         6.78252   1.618379   -4.346494 C.3        1 UNL1     0.0026
     22 C         5.938688   2.206408   -3.214211 C.3        1 UNL1     0.0016
     23 C         6.547621   1.029078   -6.723796 C.3        1 UNL1     0.0012
     24 C         5.428233   0.734182   -7.734619 C.3        1 UNL1     -0.0339
     25 C         5.634032   1.512478   -9.044565 C.3        1 UNL1     -0.0615
     26 C         5.330792   -0.761134   -7.982235 C.3        1 UNL1     -0.0615
     27 C         5.721137   9.408428   -1.788237 C.ar        1 UNL1     0.1347
     28 C         4.730826   9.570001   -0.835752 C.ar        1 UNL1     0.0342
     29 C         4.107878   8.37046   -0.430532 C.ar        1 UNL1     0.1435
     30 C         4.428413   7.128354   -0.979758 C.ar        1 UNL1     0.0774
     31 O         3.048902   8.374729   0.408252 O.3        1 UNL1     -0.4436
     32 C         2.422   7.098991   0.207359 C.3        1 UNL1     0.3143
     33 C         3.513302   6.203738   -0.343817 C.2        1 UNL1     0.2504
     34 C         4.178307   10.881821   -0.352069 C.3        1 UNL1     -0.0327
     35 O         2.075116   6.586588   1.499786 O.2        1 UNL1     -0.4528
     36 C         -1.010884   4.439863   0.974173 C.3        1 UNL1     0.0854
     37 C         -1.209431   3.196016   0.024992 C.3        1 UNL1     0.0236
     38 C         -1.727166   1.865017   0.75447 C.3        1 UNL1     0.1131
     39 C         -0.983564   1.338495   2.047567 C.3        1 UNL1     0.0200
     40 C         0.683047   1.312983   2.112331 C.3        1 UNL1     0.0661
     41 C         1.713448   0.66192   0.932499 C.3        1 UNL1     0.0091
     42 C         3.397868   1.169558   0.412465 C.3        1 UNL1     0.0661
     43 C         7.005517   8.08647   -3.482477 C.2        1 UNL1     0.2131
     44 O         7.348812   9.038423   -4.15973 O.2        1 UNL1     -0.2851
     45 O         6.461752   10.516958   -2.193316 O.3        1 UNL1     -0.5056
     46 O         3.615818   5.000419   -0.25798 O.2        1 UNL1     -0.2836
     47 C         5.443089   1.600265   2.07059 C.3        1 UNL1     -0.0566
     48 O         3.947724   -0.207188   0.449148 O.3        1 UNL1     -0.3909
     49 C         0.916958   0.417236   -0.329731 C.3        1 UNL1     -0.0577
     50 O         1.186227   2.555268   2.56095 O.3        1 UNL1     -0.3910
     51 O         -1.14115   4.187997   2.355124 O.3        1 UNL1     -0.3753
     52 C         -0.139159   3.156804   -1.114275 C.3        1 UNL1     -0.0564
     53 O         -2.238437   0.820426   -0.194085 O.3        1 UNL1     -0.4608
     54 C         -2.378205   -0.512611   0.091238 C.2        1 UNL1     0.3042
     55 O         -1.685178   -1.441499   -0.321943 O.2        1 UNL1     -0.2512
     56 C         -3.48295   -0.806405   1.065886 C.3        1 UNL1     0.0332
     57 C         -1.770309   1.903877   3.320183 C.3        1 UNL1     -0.0567
     58 C         1.347762   7.306758   -0.885515 C.3        1 UNL1     0.0210
     59 C         -2.329016   4.708625   2.949923 C.3        1 UNL1     0.0372
     60 C         0.271508   5.172619   0.790592 C.2        1 UNL1     -0.0208
     61 C         1.13708   5.639326   1.691543 C.2        1 UNL1     0.0882
     62 H         4.489198   2.997719   0.758518 H        1 UNL1     0.0365
     63 H         6.078784   4.022704   -0.011449 H        1 UNL1     0.0576
     64 H         8.249313   2.095709   -1.046954 H        1 UNL1     0.0615
     65 H         7.955766   5.204812   -1.118839 H        1 UNL1     0.0622
     66 H         -1.803765   5.141541   0.679156 H        1 UNL1     0.0645
     67 H         -2.086297   3.464844   -0.589334 H        1 UNL1     0.0362
     68 H         -2.708866   2.217754   1.105702 H        1 UNL1     0.0741
     69 H         -1.242684   0.299121   2.199113 H        1 UNL1     0.0359
     70 H         0.830098   0.628994   2.969999 H        1 UNL1     0.0600
     71 H         1.825712   -0.369086   1.321575 H        1 UNL1     0.0348
     72 H         3.241979   1.610512   1.407741 H        1 UNL1     0.0602
     73 H         0.389814   5.417855   -0.23562 H        1 UNL1     0.0628
     74 H         1.119338   5.386751   2.752264 H        1 UNL1     0.1022
     75 H         11.509769   3.804347   -2.623504 H        1 UNL1     0.0279
     76 H         10.491216   3.418654   -3.952823 H        1 UNL1     0.0279
     77 H         11.247533   5.052603   -3.769812 H        1 UNL1     0.0279
     78 H         8.782041   5.597998   -4.681904 H        1 UNL1     0.1553
     79 H         7.61004   4.02434   -4.405789 H        1 UNL1     0.1484
     80 H         3.917724   3.155334   -4.63189 H        1 UNL1     0.0317
     81 H         4.544844   4.749354   -5.026536 H        1 UNL1     0.0317
     82 H         6.555358   3.746048   -6.142294 H        1 UNL1     0.0428
     83 H         5.0484   3.182955   -6.830558 H        1 UNL1     0.0428
     84 H         6.974639   0.575809   -4.07456 H        1 UNL1     0.0428
     85 H         7.78418   2.064276   -4.41841 H        1 UNL1     0.0428
     86 H         6.458711   1.959457   -2.30725 H        1 UNL1     0.0317
     87 H         4.99528   1.654153   -3.124262 H        1 UNL1     0.0317
     88 H         7.309362   1.647448   -7.216406 H        1 UNL1     0.0429
     89 H         7.043377   0.104511   -6.401034 H        1 UNL1     0.0429
     90 H         4.465515   1.029285   -7.300681 H        1 UNL1     0.0308
     91 H         6.669167   1.440452   -9.391567 H        1 UNL1     0.0233
     92 H         4.967301   1.138341   -9.825014 H        1 UNL1     0.0233
     93 H         5.408554   2.580259   -8.935761 H        1 UNL1     0.0233
     94 H         4.840432   -0.953786   -8.942584 H        1 UNL1     0.0233
     95 H         6.331956   -1.199462   -8.020992 H        1 UNL1     0.0233
     96 H         4.757527   -1.259385   -7.195418 H        1 UNL1     0.0233
     97 H         3.107439   10.957957   -0.515398 H        1 UNL1     0.0280
     98 H         4.328513   11.021691   0.726417 H        1 UNL1     0.0280
     99 H         4.669503   11.709673   -0.889175 H        1 UNL1     0.0280
     100 H         5.945792   11.268977   -2.425423 H        1 UNL1     0.2922
     101 H         4.638595   1.012075   2.511587 H        1 UNL1     0.0236
     102 H         5.74586   2.426012   2.713594 H        1 UNL1     0.0236
     103 H         6.311778   0.920996   2.057729 H        1 UNL1     0.0236
     104 H         4.28392   -0.366543   1.352778 H        1 UNL1     0.2098
     105 H         0.688552   1.315493   -0.897866 H        1 UNL1     0.0234
     106 H         1.327453   -0.350402   -0.985591 H        1 UNL1     0.0234
     107 H         0.0   -0.0   0.0 H        1 UNL1     0.0234
     108 H         1.087685   3.190686   1.825898 H        1 UNL1     0.2098
     109 H         -0.185943   4.045019   -1.759718 H        1 UNL1     0.0234
     110 H         0.882518   3.028678   -0.740775 H        1 UNL1     0.0234
     111 H         -0.28876   2.296893   -1.780699 H        1 UNL1     0.0234
     112 H         -4.059711   -1.671543   0.724964 H        1 UNL1     0.0342
     113 H         -3.107359   -0.960801   2.0763 H        1 UNL1     0.0342
     114 H         -4.158167   0.05999   1.090522 H        1 UNL1     0.0342
     115 H         -2.844137   1.67668   3.270548 H        1 UNL1     0.0234
     116 H         -1.398769   1.52712   4.275201 H        1 UNL1     0.0234
     117 H         -1.787898   3.006099   3.372513 H        1 UNL1     0.0234
     118 H         0.32366   7.229862   -0.480166 H        1 UNL1     0.0309
     119 H         1.452614   8.258751   -1.415533 H        1 UNL1     0.0309
     120 H         1.374202   6.527024   -1.654555 H        1 UNL1     0.0309
     121 H         -2.123367   4.873455   4.007229 H        1 UNL1     0.0524
     122 H         -2.625025   5.677478   2.514332 H        1 UNL1     0.0524
     123 H         -3.14783   4.004432   2.832664 H        1 UNL1     0.0524
@<TRIPOS>BOND
     1     1     2    1
     2     1    42    1
     3     2     3    2
     4     3     4    1
     5     4     5    2
     6     5     7    1
     7     6    75    1
     8     6    76    1
     9     6    77    1
    10     7     9   am
    11     9    10    1
    12    10    11    2
    13    10    43    1
    14    11    14    1
    15    11    15    1
    16    12    13   ar
    17    12    27   ar
    18    12    43    1
    19    13    14    1
    20    13    30   ar
    21    14    17    2
    22    15    16    1
    23    16    17    1
    24    16    18    1
    25    16    22    1
    26    18    19    1
    27    19    20    1
    28    20    21    1
    29    21    22    1
    30    23    24    1
    31    23    88    1
    32    23    89    1
    33    24    25    1
    34    24    26    1
    35    24    90    1
    36    25    91    1
    37    25    92    1
    38    25    93    1
    39    26    94    1
    40    26    95    1
    41    26    96    1
    42    27    28   ar
    43    28    29   ar
    44    29    30   ar
    45    29    31    1
    46    30    33    1
    47    31    32    1
    48    32    33    1
    49    32    35    1
    50    34    97    1
    51    34    98    1
    52    34    99    1
    53    35    61    1
    54    36    37    1
    55    36    60    1
    56    37    38    1
    57    38    39    1
    58    39    40    1
    59    40    41    1
    60    41    42    1
    61    45   100    1
    62    47   101    1
    63    47   102    1
    64    47   103    1
    65    48   104    1
    66    49   105    1
    67    49   106    1
    68    49   107    1
    69    50   108    1
    70    51    59    1
    71    52   109    1
    72    52   110    1
    73    52   111    1
    74    53    54    1
    75    54    55    2
    76    54    56    1
    77    56   112    1
    78    56   113    1
    79    56   114    1
    80    57   115    1
    81    57   116    1
    82    57   117    1
    83    58   118    1
    84    58   119    1
    85    58   120    1
    86    59   121    1
    87    59   122    1
    88    59   123    1
    89    60    61    2
    90     1    47    1
    91     1    62    1
    92     2    63    1
    93     3    64    1
    94     4    65    1
    95     5     6    1
    96     7     8    2
    97     9    78    1
    98    15    79    1
    99    18    80    1
   100    18    81    1
   101    19    82    1
   102    19    83    1
   103    20    23    1
   104    21    84    1
   105    21    85    1
   106    22    86    1
   107    22    87    1
   108    27    45    1
   109    28    34    1
   110    32    58    1
   111    33    46    2
   112    36    51    1
   113    36    66    1
   114    37    52    1
   115    37    67    1
   116    38    53    1
   117    38    68    1
   118    42    48    1
   119    42    72    1
   120    43    44    2
   121    60    73    1
   122    61    74    1
   123    39    69    1
   124    39    57    1
   125    40    70    1
   126    40    50    1
   127    41    71    1
   128    41    49    1
