@<TRIPOS>MOLECULE
*****
 123 128 0 0 0
SMALL
GASTEIGER

@<TRIPOS>ATOM
     1 C         4.968884   2.244341   0.533736 C.3        1 UNL1     0.0009
     2 C         6.355882   3.123071   -0.32714 C.2        1 UNL1     -0.0787
     3 C         7.668729   3.103262   -0.937129 C.2        1 UNL1     -0.0649
     4 C         8.453937   4.358839   -1.757698 C.2        1 UNL1     -0.0542
     5 C         9.480249   4.679752   -2.680074 C.2        1 UNL1     0.0115
     6 C         10.700056   4.106259   -3.452407 C.3        1 UNL1     -0.0348
     7 C         9.457268   6.114555   -3.399656 C.2        1 UNL1     0.2441
     8 O         10.180499   7.040926   -3.060099 O.2        1 UNL1     -0.2702
     9 N         8.741649   6.155578   -4.608937 N.am        1 UNL1     -0.2772
     10 C         7.415145   6.434687   -4.372701 C.2        1 UNL1     0.1049
     11 C         6.655813   5.408568   -4.034002 C.2        1 UNL1     0.0801
     12 C         5.907414   8.00609   -3.14194 C.ar        1 UNL1     0.0753
     13 C         5.242801   6.845246   -2.632684 C.ar        1 UNL1     0.0305
     14 C         5.513569   5.512449   -3.166901 C.2        1 UNL1     0.0924
     15 N         6.913542   4.090302   -4.081723 N.pl3        1 UNL1     -0.3170
     16 C         5.695456   3.392712   -3.765669 C.3        1 UNL1     0.1275
     17 N         4.927745   4.351316   -2.888502 N.2        1 UNL1     -0.2557
     18 C         4.896149   3.269653   -5.059371 C.3        1 UNL1     0.0016
     19 C         5.761771   2.580569   -6.10218 C.3        1 UNL1     0.0026
     20 N         6.147472   1.269859   -5.597895 N.3        1 UNL1     -0.3018
     21 C         6.868674   1.281586   -4.323494 C.3        1 UNL1     0.0026
     22 C         5.979027   1.974078   -3.289629 C.3        1 UNL1     0.0016
     23 C         6.7168   0.416776   -6.621984 C.3        1 UNL1     0.0012
     24 C         5.634408   -0.021213   -7.621159 C.3        1 UNL1     -0.0339
     25 C         5.894793   -1.44318   -8.144862 C.3        1 UNL1     -0.0615
     26 C         4.260152   0.097448   -6.985456 C.3        1 UNL1     -0.0615
     27 C         5.557658   9.284341   -2.713148 C.ar        1 UNL1     0.1347
     28 C         4.5365   9.52889   -1.812324 C.ar        1 UNL1     0.0342
     29 C         3.929135   8.368307   -1.287616 C.ar        1 UNL1     0.1435
     30 C         4.293508   7.07992   -1.680694 C.ar        1 UNL1     0.0774
     31 O         2.846232   8.441798   -0.483298 O.3        1 UNL1     -0.4436
     32 C         2.254374   7.135697   -0.5517 C.3        1 UNL1     0.3143
     33 C         3.381231   6.211369   -0.966455 C.2        1 UNL1     0.2504
     34 C         3.940651   10.872989   -1.498537 C.3        1 UNL1     -0.0327
     35 O         1.881435   6.766663   0.78171 O.2        1 UNL1     -0.4528
     36 C         -1.138718   4.494955   0.426595 C.3        1 UNL1     0.0854
     37 C         -1.281327   3.145445   -0.37715 C.3        1 UNL1     0.0236
     38 C         -1.790082   1.894345   0.487524 C.3        1 UNL1     0.1131
     39 C         -1.072981   1.539452   1.852107 C.3        1 UNL1     0.0200
     40 C         0.591172   1.564492   1.963492 C.3        1 UNL1     0.0661
     41 C         1.670072   0.808738   0.894651 C.3        1 UNL1     0.0091
     42 C         3.357132   1.296371   0.364134 C.3        1 UNL1     0.0661
     43 C         6.920534   7.809718   -4.208376 C.2        1 UNL1     0.2131
     44 O         7.261977   8.685934   -4.981939 O.2        1 UNL1     -0.2851
     45 O         6.284656   10.357595   -3.224066 O.3        1 UNL1     -0.5056
     46 O         3.508269   5.028964   -0.739225 O.2        1 UNL1     -0.2836
     47 C         5.342716   1.967555   2.014824 C.3        1 UNL1     -0.0566
     48 O         3.936549   -0.052387   0.574476 O.3        1 UNL1     -0.3909
     49 C         0.916586   0.399996   -0.351416 C.3        1 UNL1     -0.0577
     50 O         1.052893   2.862694   2.278464 O.3        1 UNL1     -0.3910
     51 O         -1.303646   4.400406   1.823481 O.3        1 UNL1     -0.3753
     52 C         -0.177552   3.002968   -1.475481 C.3        1 UNL1     -0.0564
     53 O         -2.249708   0.734719   -0.346944 O.3        1 UNL1     -0.4608
     54 C         -3.37051   -0.018321   -0.113141 C.2        1 UNL1     0.3042
     55 O         -3.424802   -1.141882   0.385358 O.2        1 UNL1     -0.2512
     56 C         -4.650437   0.679907   -0.475048 C.3        1 UNL1     0.0332
     57 C         -1.909178   2.227075   3.029444 C.3        1 UNL1     -0.0567
     58 C         1.208181   7.188586   -1.689334 C.3        1 UNL1     0.0210
     59 C         -2.519841   4.955257   2.322358 C.3        1 UNL1     0.0372
     60 C         0.131667   5.234499   0.193449 C.2        1 UNL1     -0.0208
     61 C         0.959763   5.823919   1.056922 C.2        1 UNL1     0.0882
     62 H         4.396407   3.179705   0.525021 H        1 UNL1     0.0365
     63 H         5.984361   4.149871   -0.316055 H        1 UNL1     0.0576
     64 H         8.227126   2.173059   -1.063713 H        1 UNL1     0.0615
     65 H         7.865852   5.244637   -1.502745 H        1 UNL1     0.0622
     66 H         -1.938227   5.137368   0.031452 H        1 UNL1     0.0645
     67 H         -2.145667   3.319121   -1.041464 H        1 UNL1     0.0362
     68 H         -2.78934   2.259756   0.769449 H        1 UNL1     0.0741
     69 H         -1.312949   0.518095   2.116028 H        1 UNL1     0.0359
     70 H         0.728423   0.987759   2.898159 H        1 UNL1     0.0600
     71 H         1.794093   -0.16741   1.403287 H        1 UNL1     0.0348
     72 H         3.162281   1.844766   1.2972 H        1 UNL1     0.0602
     73 H         0.27441   5.362979   -0.850757 H        1 UNL1     0.0628
     74 H         0.916672   5.694713   2.138904 H        1 UNL1     0.1022
     75 H         11.361033   3.524879   -2.765282 H        1 UNL1     0.0279
     76 H         10.482282   3.3833   -4.235334 H        1 UNL1     0.0279
     77 H         11.387699   4.889609   -3.803419 H        1 UNL1     0.0279
     78 H         8.787008   5.246335   -5.064236 H        1 UNL1     0.1553
     79 H         7.643171   3.685248   -4.638953 H        1 UNL1     0.1484
     80 H         3.979567   2.701195   -4.860626 H        1 UNL1     0.0317
     81 H         4.581907   4.254829   -5.420386 H        1 UNL1     0.0317
     82 H         6.64631   3.181905   -6.358885 H        1 UNL1     0.0428
     83 H         5.173211   2.504729   -7.017 H        1 UNL1     0.0428
     84 H         7.076185   0.28253   -3.927718 H        1 UNL1     0.0428
     85 H         7.861712   1.741892   -4.419993 H        1 UNL1     0.0428
     86 H         6.477708   1.846613   -2.34673 H        1 UNL1     0.0317
     87 H         5.046069   1.411731   -3.16137 H        1 UNL1     0.0317
     88 H         7.478512   0.993761   -7.162518 H        1 UNL1     0.0429
     89 H         7.223595   -0.451431   -6.18136 H        1 UNL1     0.0429
     90 H         5.631122   0.669398   -8.472781 H        1 UNL1     0.0308
     91 H         6.146128   -2.127647   -7.329119 H        1 UNL1     0.0233
     92 H         5.020305   -1.825065   -8.67688 H        1 UNL1     0.0233
     93 H         6.726844   -1.479579   -8.858446 H        1 UNL1     0.0233
     94 H         3.54608   -0.549912   -7.5059 H        1 UNL1     0.0233
     95 H         4.303401   -0.220374   -5.939951 H        1 UNL1     0.0233
     96 H         3.888707   1.125203   -7.026892 H        1 UNL1     0.0233
     97 H         2.87433   10.903436   -1.701669 H        1 UNL1     0.0280
     98 H         4.052445   11.138074   -0.439061 H        1 UNL1     0.0280
     99 H         4.43145   11.646476   -2.111668 H        1 UNL1     0.0280
     100 H         7.218972   10.254026   -3.179909 H        1 UNL1     0.2922
     101 H         4.812482   2.663885   2.664157 H        1 UNL1     0.0236
     102 H         6.417182   1.97779   2.194826 H        1 UNL1     0.0236
     103 H         5.011839   0.968972   2.345799 H        1 UNL1     0.0236
     104 H         4.403247   -0.042306   1.432999 H        1 UNL1     0.2098
     105 H         0.684734   1.220724   -1.025553 H        1 UNL1     0.0234
     106 H         1.363291   -0.427188   -0.902912 H        1 UNL1     0.0234
     107 H         0.0   -0.0   0.0 H        1 UNL1     0.0234
     108 H         2.01443   2.877861   2.108213 H        1 UNL1     0.2098
     109 H         -0.225416   3.809506   -2.220409 H        1 UNL1     0.0234
     110 H         0.835381   2.945029   -1.062742 H        1 UNL1     0.0234
     111 H         -0.288174   2.068515   -2.041615 H        1 UNL1     0.0234
     112 H         -5.50403   0.035007   -0.245206 H        1 UNL1     0.0342
     113 H         -4.744997   1.644756   0.020905 H        1 UNL1     0.0342
     114 H         -4.647677   0.861484   -1.558647 H        1 UNL1     0.0342
     115 H         -1.888481   1.626875   3.94951 H        1 UNL1     0.0234
     116 H         -1.570342   3.23282   3.285796 H        1 UNL1     0.0234
     117 H         -2.993561   2.273607   2.82972 H        1 UNL1     0.0234
     118 H         0.174644   7.132497   -1.305067 H        1 UNL1     0.0309
     119 H         1.307033   8.075644   -2.323021 H        1 UNL1     0.0309
     120 H         1.274679   6.326475   -2.361978 H        1 UNL1     0.0309
     121 H         -2.348995   5.245903   3.358549 H        1 UNL1     0.0524
     122 H         -2.82472   5.8596   1.769864 H        1 UNL1     0.0524
     123 H         -3.318802   4.221396   2.26576 H        1 UNL1     0.0524
@<TRIPOS>BOND
     1     1     2    1
     2     1    42    1
     3     2     3    2
     4     3     4    1
     5     4     5    2
     6     5     7    1
     7     6    75    1
     8     6    76    1
     9     6    77    1
    10     7     9   am
    11     9    10    1
    12    10    11    2
    13    10    43    1
    14    11    14    1
    15    11    15    1
    16    12    13   ar
    17    12    27   ar
    18    12    43    1
    19    13    14    1
    20    13    30   ar
    21    14    17    2
    22    15    16    1
    23    16    17    1
    24    16    18    1
    25    16    22    1
    26    18    19    1
    27    19    20    1
    28    20    21    1
    29    21    22    1
    30    23    24    1
    31    23    88    1
    32    23    89    1
    33    24    25    1
    34    24    26    1
    35    24    90    1
    36    25    91    1
    37    25    92    1
    38    25    93    1
    39    26    94    1
    40    26    95    1
    41    26    96    1
    42    27    28   ar
    43    28    29   ar
    44    29    30   ar
    45    29    31    1
    46    30    33    1
    47    31    32    1
    48    32    33    1
    49    32    35    1
    50    34    97    1
    51    34    98    1
    52    34    99    1
    53    35    61    1
    54    36    37    1
    55    36    60    1
    56    37    38    1
    57    38    39    1
    58    39    40    1
    59    40    41    1
    60    41    42    1
    61    45   100    1
    62    47   101    1
    63    47   102    1
    64    47   103    1
    65    48   104    1
    66    49   105    1
    67    49   106    1
    68    49   107    1
    69    50   108    1
    70    51    59    1
    71    52   109    1
    72    52   110    1
    73    52   111    1
    74    53    54    1
    75    54    55    2
    76    54    56    1
    77    56   112    1
    78    56   113    1
    79    56   114    1
    80    57   115    1
    81    57   116    1
    82    57   117    1
    83    58   118    1
    84    58   119    1
    85    58   120    1
    86    59   121    1
    87    59   122    1
    88    59   123    1
    89    60    61    2
    90     1    47    1
    91     1    62    1
    92     2    63    1
    93     3    64    1
    94     4    65    1
    95     5     6    1
    96     7     8    2
    97     9    78    1
    98    15    79    1
    99    18    80    1
   100    18    81    1
   101    19    82    1
   102    19    83    1
   103    20    23    1
   104    21    84    1
   105    21    85    1
   106    22    86    1
   107    22    87    1
   108    27    45    1
   109    28    34    1
   110    32    58    1
   111    33    46    2
   112    36    51    1
   113    36    66    1
   114    37    52    1
   115    37    67    1
   116    38    53    1
   117    38    68    1
   118    42    48    1
   119    42    72    1
   120    43    44    2
   121    60    73    1
   122    61    74    1
   123    39    69    1
   124    39    57    1
   125    40    70    1
   126    40    50    1
   127    41    71    1
   128    41    49    1
