@<TRIPOS>MOLECULE
*****
 123 128 0 0 0
SMALL
GASTEIGER

@<TRIPOS>ATOM
     1 C         4.945305   2.351538   -0.116163 C.3        1 UNL1     0.0009
     2 C         6.141328   3.366202   -1.104609 C.2        1 UNL1     -0.0787
     3 C         7.316913   3.457072   -1.94472 C.2        1 UNL1     -0.0649
     4 C         7.927048   4.823589   -2.73638 C.2        1 UNL1     -0.0542
     5 C         8.760637   5.281573   -3.78636 C.2        1 UNL1     0.0115
     6 C         9.817803   4.839598   -4.83535 C.3        1 UNL1     -0.0348
     7 C         8.594691   6.790634   -4.308076 C.2        1 UNL1     0.2441
     8 O         9.363062   7.690407   -3.997364 O.2        1 UNL1     -0.2702
     9 N         7.665163   6.954809   -5.349793 N.am        1 UNL1     -0.2772
     10 C         6.404641   7.165424   -4.839844 C.2        1 UNL1     0.1049
     11 C         5.72835   6.084798   -4.494737 C.2        1 UNL1     0.0801
     12 C         5.144388   8.534857   -3.168393 C.ar        1 UNL1     0.0753
     13 C         4.593878   7.302931   -2.691001 C.ar        1 UNL1     0.0305
     14 C         4.767959   6.051647   -3.425192 C.2        1 UNL1     0.0924
     15 N         5.980582   4.789591   -4.750365 N.pl3        1 UNL1     -0.3170
     16 C         4.847422   4.024489   -4.302235 C.3        1 UNL1     0.1275
     17 N         4.25164   4.849211   -3.187516 N.2        1 UNL1     -0.2557
     18 C         3.82088   4.033467   -5.430877 C.3        1 UNL1     0.0016
     19 C         4.480206   3.49879   -6.692225 C.3        1 UNL1     0.0026
     20 N         4.961411   2.148998   -6.432357 N.3        1 UNL1     -0.3018
     21 C         5.908292   2.029575   -5.321716 C.3        1 UNL1     0.0026
     22 C         5.223671   2.568008   -4.064227 C.3        1 UNL1     0.0016
     23 C         5.334182   1.440787   -7.640712 C.3        1 UNL1     0.0012
     24 C         4.086594   1.093956   -8.468353 C.3        1 UNL1     -0.0339
     25 C         3.827693   2.143215   -9.562008 C.3        1 UNL1     -0.0615
     26 C         4.220817   -0.301396   -9.052951 C.3        1 UNL1     -0.0615
     27 C         4.873318   9.742291   -2.529064 C.ar        1 UNL1     0.1347
     28 C         4.037329   9.848221   -1.431816 C.ar        1 UNL1     0.0342
     29 C         3.545945   8.616361   -0.949916 C.ar        1 UNL1     0.1435
     30 C         3.838119   7.395033   -1.558367 C.ar        1 UNL1     0.0774
     31 O         2.632279   8.562241   0.043711 O.3        1 UNL1     -0.4436
     32 C         2.046008   7.257081   -0.073405 C.3        1 UNL1     0.3143
     33 C         3.080916   6.421629   -0.799489 C.2        1 UNL1     0.2504
     34 C         3.502595   11.127614   -0.851031 C.3        1 UNL1     -0.0327
     35 O         1.931453   6.721197   1.250588 O.2        1 UNL1     -0.4528
     36 C         -1.087966   4.421873   1.18495 C.3        1 UNL1     0.0854
     37 C         -1.370292   3.174201   0.262383 C.3        1 UNL1     0.0236
     38 C         -1.700637   1.814842   1.046448 C.3        1 UNL1     0.1131
     39 C         -0.738684   1.320701   2.200892 C.3        1 UNL1     0.0200
     40 C         0.916728   1.380254   2.00467 C.3        1 UNL1     0.0661
     41 C         1.781092   0.788662   0.670315 C.3        1 UNL1     0.0091
     42 C         3.336067   1.384464   -0.099408 C.3        1 UNL1     0.0661
     43 C         5.941194   8.496244   -4.41974 C.2        1 UNL1     0.2131
     44 O         6.126512   9.467868   -5.129911 O.2        1 UNL1     -0.2851
     45 O         5.48533   10.889286   -3.030344 O.3        1 UNL1     -0.5056
     46 O         3.255403   5.22473   -0.746203 O.2        1 UNL1     -0.2836
     47 C         5.591391   1.911138   1.224957 C.3        1 UNL1     -0.0566
     48 O         3.952781   0.037519   -0.166657 O.3        1 UNL1     -0.3909
     49 C         0.810208   0.509756   -0.455336 C.3        1 UNL1     -0.0577
     50 O         1.421358   2.644444   2.385321 O.3        1 UNL1     -0.3910
     51 O         -0.987975   4.156837   2.56596 O.3        1 UNL1     -0.3753
     52 C         -0.490731   3.19549   -1.030238 C.3        1 UNL1     -0.0564
     53 O         -2.301274   0.750143   0.175828 O.3        1 UNL1     -0.4608
     54 C         -2.319213   -0.59085   0.457508 C.2        1 UNL1     0.3042
     55 O         -1.705718   -1.484547   -0.124531 O.2        1 UNL1     -0.2512
     56 C         -3.155059   -0.942677   1.655127 C.3        1 UNL1     0.0332
     57 C         -1.343919   1.838746   3.587793 C.3        1 UNL1     -0.0567
     58 C         0.805089   7.414966   -0.982647 C.3        1 UNL1     0.0210
     59 C         -1.356763   5.244066   3.413187 C.3        1 UNL1     0.0372
     60 C         0.111831   5.220242   0.813123 C.2        1 UNL1     -0.0208
     61 C         1.083306   5.726201   1.574034 C.2        1 UNL1     0.0882
     62 H         4.375651   3.264381   0.095786 H        1 UNL1     0.0365
     63 H         5.772226   4.373226   -0.899338 H        1 UNL1     0.0576
     64 H         7.847384   2.565066   -2.285359 H        1 UNL1     0.0615
     65 H         7.391709   5.655373   -2.270516 H        1 UNL1     0.0622
     66 H         -1.951181   5.083476   1.026237 H        1 UNL1     0.0645
     67 H         -2.344724   3.400807   -0.204191 H        1 UNL1     0.0362
     68 H         -2.631673   2.115098   1.550969 H        1 UNL1     0.0741
     69 H         -0.918821   0.268683   2.377577 H        1 UNL1     0.0359
     70 H         1.229973   0.700458   2.820032 H        1 UNL1     0.0600
     71 H         2.00403   -0.237155   1.023806 H        1 UNL1     0.0348
     72 H         3.315963   1.811926   0.913601 H        1 UNL1     0.0602
     73 H         0.055844   5.47629   -0.215738 H        1 UNL1     0.0628
     74 H         1.244255   5.467804   2.621203 H        1 UNL1     0.1022
     75 H         10.012056   3.742644   -4.75795 H        1 UNL1     0.0279
     76 H         9.541555   4.955377   -5.880985 H        1 UNL1     0.0279
     77 H         10.81704   5.251616   -4.631713 H        1 UNL1     0.0279
     78 H         7.630023   6.107984   -5.913468 H        1 UNL1     0.1553
     79 H         6.595476   4.475022   -5.478297 H        1 UNL1     0.1484
     80 H         2.961153   3.419191   -5.137106 H        1 UNL1     0.0317
     81 H         3.438659   5.04517   -5.604127 H        1 UNL1     0.0317
     82 H         5.297411   4.151678   -7.032558 H        1 UNL1     0.0428
     83 H         3.731307   3.51556   -7.484638 H        1 UNL1     0.0428
     84 H         6.19226   0.996879   -5.096524 H        1 UNL1     0.0428
     85 H         6.862914   2.526535   -5.543178 H        1 UNL1     0.0428
     86 H         5.890769   2.343528   -3.252699 H        1 UNL1     0.0317
     87 H         4.334628   1.967724   -3.835406 H        1 UNL1     0.0317
     88 H         5.977761   2.099786   -8.238057 H        1 UNL1     0.0429
     89 H         5.91974   0.541236   -7.411141 H        1 UNL1     0.0429
     90 H         3.214147   1.058218   -7.805199 H        1 UNL1     0.0308
     91 H         4.687505   2.240214   -10.231648 H        1 UNL1     0.0233
     92 H         2.944277   1.880035   -10.148456 H        1 UNL1     0.0233
     93 H         3.633575   3.139724   -9.147129 H        1 UNL1     0.0233
     94 H         3.431565   -0.479038   -9.791436 H        1 UNL1     0.0233
     95 H         5.184992   -0.403394   -9.558842 H        1 UNL1     0.0233
     96 H         4.146638   -1.068114   -8.276672 H        1 UNL1     0.0233
     97 H         2.835002   10.947285   -0.013755 H        1 UNL1     0.0280
     98 H         4.302381   11.772565   -0.4642 H        1 UNL1     0.0280
     99 H         2.944722   11.679514   -1.625162 H        1 UNL1     0.0280
     100 H         4.892632   11.589618   -3.23979 H        1 UNL1     0.2922
     101 H         4.866452   1.352075   1.8162 H        1 UNL1     0.0236
     102 H         6.023905   2.739656   1.784843 H        1 UNL1     0.0236
     103 H         6.427812   1.209109   1.070854 H        1 UNL1     0.0236
     104 H         4.505233   -0.074125   0.631656 H        1 UNL1     0.2098
     105 H         0.414316   1.399849   -0.937845 H        1 UNL1     0.0234
     106 H         1.170631   -0.196636   -1.203021 H        1 UNL1     0.0234
     107 H         0.0   -0.0   0.0 H        1 UNL1     0.0234
     108 H         1.050027   3.303117   1.767234 H        1 UNL1     0.2098
     109 H         0.584262   3.193037   -0.80199 H        1 UNL1     0.0234
     110 H         -0.72057   2.376883   -1.720745 H        1 UNL1     0.0234
     111 H         -0.666369   4.102173   -1.624396 H        1 UNL1     0.0234
     112 H         -3.122489   -2.022777   1.827372 H        1 UNL1     0.0342
     113 H         -2.846622   -0.395681   2.544793 H        1 UNL1     0.0342
     114 H         -4.196607   -0.667293   1.43947 H        1 UNL1     0.0342
     115 H         -2.351063   1.438606   3.76873 H        1 UNL1     0.0234
     116 H         -0.732038   1.593882   4.458248 H        1 UNL1     0.0234
     117 H         -1.53999   2.924673   3.603932 H        1 UNL1     0.0234
     118 H         -0.077861   7.767831   -0.421494 H        1 UNL1     0.0309
     119 H         0.978136   8.081047   -1.833877 H        1 UNL1     0.0309
     120 H         0.470569   6.46181   -1.406554 H        1 UNL1     0.0309
     121 H         -0.669965   6.065935   3.212697 H        1 UNL1     0.0524
     122 H         -2.377634   5.606915   3.207761 H        1 UNL1     0.0524
     123 H         -1.291386   4.946862   4.456015 H        1 UNL1     0.0524
@<TRIPOS>BOND
     1     1     2    1
     2     1    42    1
     3     2     3    2
     4     3     4    1
     5     4     5    2
     6     5     7    1
     7     6    75    1
     8     6    76    1
     9     6    77    1
    10     7     9   am
    11     9    10    1
    12    10    11    2
    13    10    43    1
    14    11    14    1
    15    11    15    1
    16    12    13   ar
    17    12    27   ar
    18    12    43    1
    19    13    14    1
    20    13    30   ar
    21    14    17    2
    22    15    16    1
    23    16    17    1
    24    16    18    1
    25    16    22    1
    26    18    19    1
    27    19    20    1
    28    20    21    1
    29    21    22    1
    30    23    24    1
    31    23    88    1
    32    23    89    1
    33    24    25    1
    34    24    26    1
    35    24    90    1
    36    25    91    1
    37    25    92    1
    38    25    93    1
    39    26    94    1
    40    26    95    1
    41    26    96    1
    42    27    28   ar
    43    28    29   ar
    44    29    30   ar
    45    29    31    1
    46    30    33    1
    47    31    32    1
    48    32    33    1
    49    32    35    1
    50    34    97    1
    51    34    98    1
    52    34    99    1
    53    35    61    1
    54    36    37    1
    55    36    60    1
    56    37    38    1
    57    38    39    1
    58    39    40    1
    59    40    41    1
    60    41    42    1
    61    45   100    1
    62    47   101    1
    63    47   102    1
    64    47   103    1
    65    48   104    1
    66    49   105    1
    67    49   106    1
    68    49   107    1
    69    50   108    1
    70    51    59    1
    71    52   109    1
    72    52   110    1
    73    52   111    1
    74    53    54    1
    75    54    55    2
    76    54    56    1
    77    56   112    1
    78    56   113    1
    79    56   114    1
    80    57   115    1
    81    57   116    1
    82    57   117    1
    83    58   118    1
    84    58   119    1
    85    58   120    1
    86    59   121    1
    87    59   122    1
    88    59   123    1
    89    60    61    2
    90     1    47    1
    91     1    62    1
    92     2    63    1
    93     3    64    1
    94     4    65    1
    95     5     6    1
    96     7     8    2
    97     9    78    1
    98    15    79    1
    99    18    80    1
   100    18    81    1
   101    19    82    1
   102    19    83    1
   103    20    23    1
   104    21    84    1
   105    21    85    1
   106    22    86    1
   107    22    87    1
   108    27    45    1
   109    28    34    1
   110    32    58    1
   111    33    46    2
   112    36    51    1
   113    36    66    1
   114    37    52    1
   115    37    67    1
   116    38    53    1
   117    38    68    1
   118    42    48    1
   119    42    72    1
   120    43    44    2
   121    60    73    1
   122    61    74    1
   123    39    69    1
   124    39    57    1
   125    40    70    1
   126    40    50    1
   127    41    71    1
   128    41    49    1
