@<TRIPOS>MOLECULE
*****
 123 128 0 0 0
SMALL
GASTEIGER

@<TRIPOS>ATOM
     1 C         4.97228   2.23784   0.529385 C.3        1 UNL1     0.0009
     2 C         6.359949   3.114183   -0.332842 C.2        1 UNL1     -0.0787
     3 C         7.672383   3.092226   -0.943646 C.2        1 UNL1     -0.0649
     4 C         8.45881   4.34627   -1.765391 C.2        1 UNL1     -0.0542
     5 C         9.484983   4.665263   -2.688587 C.2        1 UNL1     0.0115
     6 C         10.703509   4.089663   -3.461376 C.3        1 UNL1     -0.0348
     7 C         9.463534   6.099706   -3.408934 C.2        1 UNL1     0.2441
     8 O         10.18826   7.02526   -3.070335 O.2        1 UNL1     -0.2702
     9 N         8.747211   6.141064   -4.617785 N.am        1 UNL1     -0.2772
     10 C         7.421243   6.422136   -4.380867 C.2        1 UNL1     0.1049
     11 C         6.660706   5.397253   -4.041132 C.2        1 UNL1     0.0801
     12 C         5.916463   7.996291   -3.15001 C.ar        1 UNL1     0.0753
     13 C         5.250566   6.836645   -2.639705 C.ar        1 UNL1     0.0305
     14 C         5.519153   5.503185   -3.173369 C.2        1 UNL1     0.0924
     15 N         6.91658   4.078606   -4.0883 N.pl3        1 UNL1     -0.3170
     16 C         5.69773   3.382874   -3.7711 C.3        1 UNL1     0.1275
     17 N         4.931898   4.343015   -2.893971 N.2        1 UNL1     -0.2557
     18 C         4.897437   3.26022   -5.064232 C.3        1 UNL1     0.0016
     19 C         5.761448   2.569373   -6.107211 C.3        1 UNL1     0.0026
     20 N         6.145653   1.258404   -5.602457 N.3        1 UNL1     -0.3018
     21 C         6.867674   1.269824   -4.328517 C.3        1 UNL1     0.0026
     22 C         5.979637   1.964107   -3.294469 C.3        1 UNL1     0.0016
     23 C         6.713155   0.403979   -6.626441 C.3        1 UNL1     0.0012
     24 C         5.629528   -0.033053   -7.624696 C.3        1 UNL1     -0.0339
     25 C         5.855997   0.593304   -9.010498 C.3        1 UNL1     -0.0615
     26 C         5.570939   -1.548901   -7.699197 C.3        1 UNL1     -0.0615
     27 C         5.568747   9.275257   -2.721691 C.ar        1 UNL1     0.1347
     28 C         4.548497   9.521708   -1.820358 C.ar        1 UNL1     0.0342
     29 C         3.939857   8.362252   -1.294637 C.ar        1 UNL1     0.1435
     30 C         4.302199   7.073148   -1.687245 C.ar        1 UNL1     0.0774
     31 O         2.857564   8.437677   -0.489678 O.3        1 UNL1     -0.4436
     32 C         2.263856   7.13236   -0.556998 C.3        1 UNL1     0.3143
     33 C         3.389172   6.206247   -0.971961 C.2        1 UNL1     0.2504
     34 C         3.954706   10.8668   -1.506925 C.3        1 UNL1     -0.0327
     35 O         1.891248   6.764565   0.776847 O.2        1 UNL1     -0.4528
     36 C         -1.132269   4.496847   0.424866 C.3        1 UNL1     0.0854
     37 C         -1.277251   3.1471   -0.378056 C.3        1 UNL1     0.0236
     38 C         -1.787192   1.897174   0.487617 C.3        1 UNL1     0.1131
     39 C         -1.069723   1.542028   1.851941 C.3        1 UNL1     0.0200
     40 C         0.594533   1.564825   1.962265 C.3        1 UNL1     0.0661
     41 C         1.671713   0.807   0.893155 C.3        1 UNL1     0.0091
     42 C         3.35911   1.29201   0.361312 C.3        1 UNL1     0.0661
     43 C         6.928638   7.79794   -4.216977 C.2        1 UNL1     0.2131
     44 O         7.270806   8.673263   -4.99123 O.2        1 UNL1     -0.2851
     45 O         6.296907   10.347227   -3.23365 O.3        1 UNL1     -0.5056
     46 O         3.514717   5.023791   -0.744169 O.2        1 UNL1     -0.2836
     47 C         5.346662   1.961341   2.010387 C.3        1 UNL1     -0.0566
     48 O         3.936794   -0.057435   0.572021 O.3        1 UNL1     -0.3909
     49 C         0.916876   0.398625   -0.352215 C.3        1 UNL1     -0.0577
     50 O         1.058249   2.862558   2.276241 O.3        1 UNL1     -0.3910
     51 O         -1.296448   4.403283   1.821907 O.3        1 UNL1     -0.3753
     52 C         -0.174368   3.002499   -1.477004 C.3        1 UNL1     -0.0564
     53 O         -2.248948   0.737732   -0.345931 O.3        1 UNL1     -0.4608
     54 C         -2.368464   -0.556369   0.088751 C.2        1 UNL1     0.3042
     55 O         -1.486004   -1.412359   0.137566 O.2        1 UNL1     -0.2512
     56 C         -3.739094   -0.894011   0.602644 C.3        1 UNL1     0.0332
     57 C         -1.904225   2.231446   3.029431 C.3        1 UNL1     -0.0567
     58 C         1.217021   7.186079   -1.694002 C.3        1 UNL1     0.0210
     59 C         -2.511558   4.960087   2.321248 C.3        1 UNL1     0.0372
     60 C         0.138991   5.234505   0.190519 C.2        1 UNL1     -0.0208
     61 C         0.968446   5.823247   1.05315 C.2        1 UNL1     0.0882
     62 H         4.401092   3.173991   0.520522 H        1 UNL1     0.0365
     63 H         5.989856   4.141502   -0.32208 H        1 UNL1     0.0576
     64 H         8.229412   2.161183   -1.070076 H        1 UNL1     0.0615
     65 H         7.872112   5.23302   -1.510549 H        1 UNL1     0.0622
     66 H         -1.931137   5.140151   0.029879 H        1 UNL1     0.0645
     67 H         -2.141769   3.321611   -1.04192 H        1 UNL1     0.0362
     68 H         -2.785765   2.264121   0.769973 H        1 UNL1     0.0741
     69 H         -1.310938   0.521148   2.116568 H        1 UNL1     0.0359
     70 H         0.731575   0.98841   2.897158 H        1 UNL1     0.0600
     71 H         1.794703   -0.169043   1.402243 H        1 UNL1     0.0348
     72 H         3.165607   1.84118   1.294202 H        1 UNL1     0.0602
     73 H         0.281253   5.362221   -0.853846 H        1 UNL1     0.0628
     74 H         0.925858   5.694687   2.13523 H        1 UNL1     0.1022
     75 H         10.799441   2.991887   -3.280495 H        1 UNL1     0.0279
     76 H         10.659933   4.145313   -4.546767 H        1 UNL1     0.0279
     77 H         11.664977   4.457958   -3.074545 H        1 UNL1     0.0279
     78 H         8.791025   5.231512   -5.07262 H        1 UNL1     0.1553
     79 H         7.645297   3.67224   -4.645769 H        1 UNL1     0.1484
     80 H         3.980196   2.693138   -4.864601 H        1 UNL1     0.0317
     81 H         4.584332   4.245634   -5.425584 H        1 UNL1     0.0317
     82 H         6.646656   3.169345   -6.364799 H        1 UNL1     0.0428
     83 H         5.172208   2.493851   -7.021619 H        1 UNL1     0.0428
     84 H         7.074051   0.270697   -3.932329 H        1 UNL1     0.0428
     85 H         7.861286   1.728702   -4.425891 H        1 UNL1     0.0428
     86 H         6.478736   1.836463   -2.351815 H        1 UNL1     0.0317
     87 H         5.045983   1.403121   -3.165317 H        1 UNL1     0.0317
     88 H         7.475324   0.979617   -7.167768 H        1 UNL1     0.0429
     89 H         7.219025   -0.464689   -6.185665 H        1 UNL1     0.0429
     90 H         4.648793   0.286693   -7.253032 H        1 UNL1     0.0308
     91 H         6.901892   0.506892   -9.319913 H        1 UNL1     0.0233
     92 H         5.21986   0.115269   -9.759111 H        1 UNL1     0.0233
     93 H         5.604899   1.660685   -9.032451 H        1 UNL1     0.0233
     94 H         5.112336   -1.863228   -8.642976 H        1 UNL1     0.0233
     95 H         6.581878   -1.964225   -7.660847 H        1 UNL1     0.0233
     96 H         4.986195   -1.966639   -6.874856 H        1 UNL1     0.0233
     97 H         2.888553   10.899019   -1.710667 H        1 UNL1     0.0280
     98 H         4.066336   11.131711   -0.447389 H        1 UNL1     0.0280
     99 H         4.447141   11.639462   -2.119785 H        1 UNL1     0.0280
     100 H         5.963135   10.697321   -4.0409 H        1 UNL1     0.2922
     101 H         4.441869   1.784079   2.591406 H        1 UNL1     0.0236
     102 H         5.967648   2.742008   2.448471 H        1 UNL1     0.0236
     103 H         5.936979   1.036612   2.122616 H        1 UNL1     0.0236
     104 H         4.250417   -0.102965   1.496433 H        1 UNL1     0.2098
     105 H         0.685653   1.219323   -1.026606 H        1 UNL1     0.0234
     106 H         1.36214   -0.429413   -0.903594 H        1 UNL1     0.0234
     107 H         0.0   -0.0   0.0 H        1 UNL1     0.0234
     108 H         2.019698   2.876302   2.105377 H        1 UNL1     0.2098
     109 H         -0.221585   3.808699   -2.222339 H        1 UNL1     0.0234
     110 H         0.838744   2.943383   -1.064871 H        1 UNL1     0.0234
     111 H         -0.286639   2.067894   -2.042561 H        1 UNL1     0.0234
     112 H         -4.049066   -1.871728   0.22142 H        1 UNL1     0.0342
     113 H         -3.787227   -0.865523   1.690171 H        1 UNL1     0.0342
     114 H         -4.443963   -0.143845   0.218488 H        1 UNL1     0.0342
     115 H         -1.949592   1.595593   3.924317 H        1 UNL1     0.0234
     116 H         -1.51663   3.204579   3.33738 H        1 UNL1     0.0234
     117 H         -2.97668   2.349876   2.797579 H        1 UNL1     0.0234
     118 H         0.183691   7.130065   -1.309166 H        1 UNL1     0.0309
     119 H         1.315734   8.073426   -2.327306 H        1 UNL1     0.0309
     120 H         1.28291   6.324285   -2.367111 H        1 UNL1     0.0309
     121 H         -2.339658   5.251059   3.357174 H        1 UNL1     0.0524
     122 H         -2.815535   5.864552   1.768456 H        1 UNL1     0.0524
     123 H         -3.31157   4.227302   2.265552 H        1 UNL1     0.0524
@<TRIPOS>BOND
     1     1     2    1
     2     1    42    1
     3     2     3    2
     4     3     4    1
     5     4     5    2
     6     5     7    1
     7     6    75    1
     8     6    76    1
     9     6    77    1
    10     7     9   am
    11     9    10    1
    12    10    11    2
    13    10    43    1
    14    11    14    1
    15    11    15    1
    16    12    13   ar
    17    12    27   ar
    18    12    43    1
    19    13    14    1
    20    13    30   ar
    21    14    17    2
    22    15    16    1
    23    16    17    1
    24    16    18    1
    25    16    22    1
    26    18    19    1
    27    19    20    1
    28    20    21    1
    29    21    22    1
    30    23    24    1
    31    23    88    1
    32    23    89    1
    33    24    25    1
    34    24    26    1
    35    24    90    1
    36    25    91    1
    37    25    92    1
    38    25    93    1
    39    26    94    1
    40    26    95    1
    41    26    96    1
    42    27    28   ar
    43    28    29   ar
    44    29    30   ar
    45    29    31    1
    46    30    33    1
    47    31    32    1
    48    32    33    1
    49    32    35    1
    50    34    97    1
    51    34    98    1
    52    34    99    1
    53    35    61    1
    54    36    37    1
    55    36    60    1
    56    37    38    1
    57    38    39    1
    58    39    40    1
    59    40    41    1
    60    41    42    1
    61    45   100    1
    62    47   101    1
    63    47   102    1
    64    47   103    1
    65    48   104    1
    66    49   105    1
    67    49   106    1
    68    49   107    1
    69    50   108    1
    70    51    59    1
    71    52   109    1
    72    52   110    1
    73    52   111    1
    74    53    54    1
    75    54    55    2
    76    54    56    1
    77    56   112    1
    78    56   113    1
    79    56   114    1
    80    57   115    1
    81    57   116    1
    82    57   117    1
    83    58   118    1
    84    58   119    1
    85    58   120    1
    86    59   121    1
    87    59   122    1
    88    59   123    1
    89    60    61    2
    90     1    47    1
    91     1    62    1
    92     2    63    1
    93     3    64    1
    94     4    65    1
    95     5     6    1
    96     7     8    2
    97     9    78    1
    98    15    79    1
    99    18    80    1
   100    18    81    1
   101    19    82    1
   102    19    83    1
   103    20    23    1
   104    21    84    1
   105    21    85    1
   106    22    86    1
   107    22    87    1
   108    27    45    1
   109    28    34    1
   110    32    58    1
   111    33    46    2
   112    36    51    1
   113    36    66    1
   114    37    52    1
   115    37    67    1
   116    38    53    1
   117    38    68    1
   118    42    48    1
   119    42    72    1
   120    43    44    2
   121    60    73    1
   122    61    74    1
   123    39    69    1
   124    39    57    1
   125    40    70    1
   126    40    50    1
   127    41    71    1
   128    41    49    1
