@<TRIPOS>MOLECULE
*****
 123 128 0 0 0
SMALL
GASTEIGER

@<TRIPOS>ATOM
     1 C         5.166647   1.759536   0.457232 C.3        1 UNL1     0.0009
     2 C         6.595869   2.569029   -0.402467 C.2        1 UNL1     -0.0787
     3 C         7.873442   2.473826   -1.076849 C.2        1 UNL1     -0.0649
     4 C         8.743169   3.71111   -1.837809 C.2        1 UNL1     -0.0542
     5 C         9.756232   4.006293   -2.783139 C.2        1 UNL1     0.0115
     6 C         10.879898   3.383589   -3.656601 C.3        1 UNL1     -0.0348
     7 C         9.844347   5.489992   -3.389655 C.2        1 UNL1     0.2441
     8 O         10.669014   6.313231   -3.017193 O.2        1 UNL1     -0.2702
     9 N         9.085825   5.69584   -4.555169 N.am        1 UNL1     -0.2772
     10 C         7.804436   6.079677   -4.232626 C.2        1 UNL1     0.1049
     11 C         6.962692   5.106357   -3.93541 C.2        1 UNL1     0.0801
     12 C         6.512175   7.683007   -2.812512 C.ar        1 UNL1     0.0753
     13 C         5.758534   6.553307   -2.360393 C.ar        1 UNL1     0.0305
     14 C         5.87388   5.248116   -3.007095 C.2        1 UNL1     0.0924
     15 N         7.08705   3.777706   -4.095874 N.pl3        1 UNL1     -0.3170
     16 C         5.820604   3.175721   -3.773407 C.3        1 UNL1     0.1275
     17 N         5.188796   4.129212   -2.788827 N.2        1 UNL1     -0.2557
     18 C         4.959145   3.233493   -5.031283 C.3        1 UNL1     0.0016
     19 C         5.707857   2.551454   -6.165234 C.3        1 UNL1     0.0026
     20 N         5.983505   1.173773   -5.781775 N.3        1 UNL1     -0.3018
     21 C         6.755526   1.014499   -4.547682 C.3        1 UNL1     0.0026
     22 C         5.982885   1.702917   -3.421183 C.3        1 UNL1     0.0016
     23 C         6.422264   0.355624   -6.894774 C.3        1 UNL1     0.0012
     24 C         5.260764   0.104096   -7.869149 C.3        1 UNL1     -0.0339
     25 C         5.326234   1.051151   -9.078635 C.3        1 UNL1     -0.0615
     26 C         5.248261   -1.35237   -8.299651 C.3        1 UNL1     -0.0615
     27 C         6.308471   8.950048   -2.271005 C.ar        1 UNL1     0.1347
     28 C         5.35533   9.21718   -1.304458 C.ar        1 UNL1     0.0342
     29 C         4.659285   8.081062   -0.839783 C.ar        1 UNL1     0.1435
     30 C         4.878031   6.799705   -1.347221 C.ar        1 UNL1     0.0774
     31 O         3.623827   8.192083   0.020745 O.3        1 UNL1     -0.4436
     32 C         2.903817   6.957794   -0.117062 C.3        1 UNL1     0.3143
     33 C         3.915606   5.967049   -0.656433 C.2        1 UNL1     0.2504
     34 C         4.908581   10.582159   -0.86022 C.3        1 UNL1     -0.0327
     35 O         2.55298   6.519809   1.201397 O.2        1 UNL1     -0.4528
     36 C         -0.688571   4.580916   0.825726 C.3        1 UNL1     0.0854
     37 C         -0.997249   3.320043   -0.070064 C.3        1 UNL1     0.0236
     38 C         -1.589813   2.057419   0.721385 C.3        1 UNL1     0.1131
     39 C         -0.85418   1.527509   2.017653 C.3        1 UNL1     0.0200
     40 C         0.807556   1.385466   2.047566 C.3        1 UNL1     0.0661
     41 C         1.76065   0.61913   0.872002 C.3        1 UNL1     0.0091
     42 C         3.463627   0.985524   0.296651 C.3        1 UNL1     0.0661
     43 C         7.455077   7.477757   -3.939928 C.2        1 UNL1     0.2131
     44 O         7.848208   8.376962   -4.660772 O.2        1 UNL1     -0.2851
     45 O         7.115438   9.987053   -2.734538 O.3        1 UNL1     -0.5056
     46 O         3.935021   4.7635   -0.526254 O.2        1 UNL1     -0.2836
     47 C         5.573603   1.330338   1.892557 C.3        1 UNL1     -0.0566
     48 O         3.915714   -0.424661   0.374841 O.3        1 UNL1     -0.3909
     49 C         0.918616   0.385257   -0.362411 C.3        1 UNL1     -0.0577
     50 O         1.407814   2.604444   2.436808 O.3        1 UNL1     -0.3910
     51 O         -0.802874   4.390439   2.217877 O.3        1 UNL1     -0.3753
     52 C         0.039748   3.16223   -1.229668 C.3        1 UNL1     -0.0564
     53 O         -2.196272   1.017511   -0.174787 O.3        1 UNL1     -0.4608
     54 C         -2.425624   -0.289865   0.165939 C.2        1 UNL1     0.3042
     55 O         -1.856354   -1.287516   -0.275042 O.2        1 UNL1     -0.2512
     56 C         -3.459555   -0.458242   1.24267 C.3        1 UNL1     0.0332
     57 C         -1.568098   2.194488   3.284 C.3        1 UNL1     -0.0567
     58 C         1.82082   7.201028   -1.193855 C.3        1 UNL1     0.0210
     59 C         -1.113563   5.568493   2.960524 C.3        1 UNL1     0.0372
     60 C         0.637507   5.212899   0.586404 C.2        1 UNL1     -0.0208
     61 C         1.555364   5.649727   1.449807 C.2        1 UNL1     0.0882
     62 H         4.689249   2.742666   0.5481 H        1 UNL1     0.0365
     63 H         6.328113   3.622222   -0.29495 H        1 UNL1     0.0576
     64 H         8.331636   1.508031   -1.301363 H        1 UNL1     0.0615
     65 H         8.256505   4.625341   -1.487349 H        1 UNL1     0.0622
     66 H         -1.436872   5.325986   0.52083 H        1 UNL1     0.0645
     67 H         -1.867553   3.627811   -0.675382 H        1 UNL1     0.0362
     68 H         -2.535409   2.492157   1.079677 H        1 UNL1     0.0741
     69 H         -1.182241   0.515638   2.214886 H        1 UNL1     0.0359
     70 H         0.92667   0.725037   2.92774 H        1 UNL1     0.0600
     71 H         1.809269   -0.402104   1.298236 H        1 UNL1     0.0348
     72 H         3.363328   1.47313   1.27721 H        1 UNL1     0.0602
     73 H         0.747988   5.410791   -0.450843 H        1 UNL1     0.0628
     74 H         1.545484   5.438619   2.519654 H        1 UNL1     0.1022
     75 H         10.908993   2.274926   -3.526006 H        1 UNL1     0.0279
     76 H         10.772208   3.489842   -4.733719 H        1 UNL1     0.0279
     77 H         11.887462   3.668097   -3.319601 H        1 UNL1     0.0279
     78 H         9.02212   4.825962   -5.079888 H        1 UNL1     0.1553
     79 H         7.749039   3.351356   -4.71791 H        1 UNL1     0.1484
     80 H         4.000235   2.740455   -4.830858 H        1 UNL1     0.0317
     81 H         4.728525   4.269867   -5.300343 H        1 UNL1     0.0317
     82 H         6.635701   3.084816   -6.419287 H        1 UNL1     0.0428
     83 H         5.076584   2.605614   -7.052709 H        1 UNL1     0.0428
     84 H         6.880131   -0.028314   -4.239741 H        1 UNL1     0.0428
     85 H         7.784115   1.384746   -4.658307 H        1 UNL1     0.0428
     86 H         6.505954   1.453303   -2.516705 H        1 UNL1     0.0317
     87 H         5.005318   1.223165   -3.289672 H        1 UNL1     0.0317
     88 H         7.213604   0.899301   -7.427213 H        1 UNL1     0.0429
     89 H         6.859214   -0.589364   -6.547145 H        1 UNL1     0.0429
     90 H         4.311227   0.270143   -7.346635 H        1 UNL1     0.0308
     91 H         6.277902   0.953108   -9.6095 H        1 UNL1     0.0233
     92 H         4.506363   0.849484   -9.771997 H        1 UNL1     0.0233
     93 H         5.230207   2.104783   -8.789717 H        1 UNL1     0.0233
     94 H         4.550837   -1.49413   -9.132321 H        1 UNL1     0.0233
     95 H         6.244135   -1.65006   -8.639618 H        1 UNL1     0.0233
     96 H         4.944647   -2.008438   -7.479065 H        1 UNL1     0.0233
     97 H         4.114022   10.530549   -0.121813 H        1 UNL1     0.0280
     98 H         5.720914   11.150252   -0.388372 H        1 UNL1     0.0280
     99 H         4.536638   11.149624   -1.728976 H        1 UNL1     0.0280
     100 H         6.644887   10.741465   -3.042865 H        1 UNL1     0.2922
     101 H         4.712   0.906094   2.407643 H        1 UNL1     0.0236
     102 H         6.037655   2.133063   2.464633 H        1 UNL1     0.0236
     103 H         6.322362   0.520702   1.886076 H        1 UNL1     0.0236
     104 H         4.33604   -0.551675   1.247861 H        1 UNL1     0.2098
     105 H         0.700204   1.28385   -0.933934 H        1 UNL1     0.0234
     106 H         1.28523   -0.401738   -1.02132 H        1 UNL1     0.0234
     107 H         0.0   -0.0   0.0 H        1 UNL1     0.0234
     108 H         1.218172   3.257902   1.73624 H        1 UNL1     0.2098
     109 H         1.068784   3.063176   -0.856862 H        1 UNL1     0.0234
     110 H         -0.1888   2.327291   -1.900776 H        1 UNL1     0.0234
     111 H         0.04584   4.040084   -1.889427 H        1 UNL1     0.0234
     112 H         -3.578969   -1.519444   1.481281 H        1 UNL1     0.0342
     113 H         -3.219408   0.118198   2.134797 H        1 UNL1     0.0342
     114 H         -4.419969   -0.089685   0.856748 H        1 UNL1     0.0342
     115 H         -2.639512   1.954103   3.322409 H        1 UNL1     0.0234
     116 H         -1.132233   1.905777   4.242497 H        1 UNL1     0.0234
     117 H         -1.598416   3.296872   3.24191 H        1 UNL1     0.0234
     118 H         0.920905   7.684462   -0.774985 H        1 UNL1     0.0309
     119 H         2.182797   7.791403   -2.041577 H        1 UNL1     0.0309
     120 H         1.432458   6.268445   -1.617611 H        1 UNL1     0.0309
     121 H         -0.27772   6.258612   2.848905 H        1 UNL1     0.0524
     122 H         -2.016118   6.076158   2.581436 H        1 UNL1     0.0524
     123 H         -1.260494   5.324152   4.008762 H        1 UNL1     0.0524
@<TRIPOS>BOND
     1     1     2    1
     2     1    42    1
     3     2     3    2
     4     3     4    1
     5     4     5    2
     6     5     7    1
     7     6    75    1
     8     6    76    1
     9     6    77    1
    10     7     9   am
    11     9    10    1
    12    10    11    2
    13    10    43    1
    14    11    14    1
    15    11    15    1
    16    12    13   ar
    17    12    27   ar
    18    12    43    1
    19    13    14    1
    20    13    30   ar
    21    14    17    2
    22    15    16    1
    23    16    17    1
    24    16    18    1
    25    16    22    1
    26    18    19    1
    27    19    20    1
    28    20    21    1
    29    21    22    1
    30    23    24    1
    31    23    88    1
    32    23    89    1
    33    24    25    1
    34    24    26    1
    35    24    90    1
    36    25    91    1
    37    25    92    1
    38    25    93    1
    39    26    94    1
    40    26    95    1
    41    26    96    1
    42    27    28   ar
    43    28    29   ar
    44    29    30   ar
    45    29    31    1
    46    30    33    1
    47    31    32    1
    48    32    33    1
    49    32    35    1
    50    34    97    1
    51    34    98    1
    52    34    99    1
    53    35    61    1
    54    36    37    1
    55    36    60    1
    56    37    38    1
    57    38    39    1
    58    39    40    1
    59    40    41    1
    60    41    42    1
    61    45   100    1
    62    47   101    1
    63    47   102    1
    64    47   103    1
    65    48   104    1
    66    49   105    1
    67    49   106    1
    68    49   107    1
    69    50   108    1
    70    51    59    1
    71    52   109    1
    72    52   110    1
    73    52   111    1
    74    53    54    1
    75    54    55    2
    76    54    56    1
    77    56   112    1
    78    56   113    1
    79    56   114    1
    80    57   115    1
    81    57   116    1
    82    57   117    1
    83    58   118    1
    84    58   119    1
    85    58   120    1
    86    59   121    1
    87    59   122    1
    88    59   123    1
    89    60    61    2
    90     1    47    1
    91     1    62    1
    92     2    63    1
    93     3    64    1
    94     4    65    1
    95     5     6    1
    96     7     8    2
    97     9    78    1
    98    15    79    1
    99    18    80    1
   100    18    81    1
   101    19    82    1
   102    19    83    1
   103    20    23    1
   104    21    84    1
   105    21    85    1
   106    22    86    1
   107    22    87    1
   108    27    45    1
   109    28    34    1
   110    32    58    1
   111    33    46    2
   112    36    51    1
   113    36    66    1
   114    37    52    1
   115    37    67    1
   116    38    53    1
   117    38    68    1
   118    42    48    1
   119    42    72    1
   120    43    44    2
   121    60    73    1
   122    61    74    1
   123    39    69    1
   124    39    57    1
   125    40    70    1
   126    40    50    1
   127    41    71    1
   128    41    49    1
