@<TRIPOS>MOLECULE
*****
 123 128 0 0 0
SMALL
GASTEIGER

@<TRIPOS>ATOM
     1 C         -0.113783   0.956913   4.033006 C.3        1 UNL1     0.0009
     2 C         -1.457056   0.555061   5.245923 C.2        1 UNL1     -0.0787
     3 C         -2.626055   0.951441   6.002475 C.2        1 UNL1     -0.0649
     4 C         -3.608957   -0.017702   6.982793 C.2        1 UNL1     -0.0542
     5 C         -4.880512   -0.135879   7.596194 C.2        1 UNL1     0.0115
     6 C         -6.194929   0.625999   7.920493 C.3        1 UNL1     -0.0348
     7 C         -5.367767   -1.579293   8.102285 C.2        1 UNL1     0.2441
     8 O         -5.340527   -1.916326   9.277952 O.2        1 UNL1     -0.2702
     9 N         -6.069325   -2.33304   7.145294 N.am        1 UNL1     -0.2772
     10 C         -5.19582   -3.075511   6.384341 C.2        1 UNL1     0.1049
     11 C         -4.624304   -2.44602   5.373731 C.2        1 UNL1     0.0801
     12 C         -3.254135   -4.643215   6.556087 C.ar        1 UNL1     0.0753
     13 C         -2.592135   -3.802873   5.605199 C.ar        1 UNL1     0.0305
     14 C         -3.30683   -2.751173   4.885346 C.2        1 UNL1     0.0924
     15 N         -4.908098   -1.250474   4.829069 N.pl3        1 UNL1     -0.3170
     16 C         -4.104631   -1.105509   3.644299 C.3        1 UNL1     0.1275
     17 N         -2.883916   -1.952366   3.909652 N.2        1 UNL1     -0.2557
     18 C         -4.85367   -1.787921   2.503704 C.3        1 UNL1     0.0016
     19 C         -6.241989   -1.17696   2.399369 C.3        1 UNL1     0.0026
     20 N         -6.106871   0.252599   2.156195 N.3        1 UNL1     -0.3018
     21 C         -5.346666   0.986576   3.169967 C.3        1 UNL1     0.0026
     22 C         -3.954177   0.359143   3.254807 C.3        1 UNL1     0.0016
     23 C         -7.349847   0.874755   1.745615 C.3        1 UNL1     0.0012
     24 C         -8.487048   0.490947   2.705418 C.3        1 UNL1     -0.0339
     25 C         -9.829989   0.370371   1.966483 C.3        1 UNL1     -0.0615
     26 C         -8.137013   -0.790615   3.441527 C.3        1 UNL1     -0.0615
     27 C         -2.597726   -5.719626   7.148188 C.ar        1 UNL1     0.1347
     28 C         -1.297098   -6.076888   6.840323 C.ar        1 UNL1     0.0342
     29 C         -0.649384   -5.206218   5.938344 C.ar        1 UNL1     0.1435
     30 C         -1.282709   -4.103012   5.36471 C.ar        1 UNL1     0.0774
     31 O         0.581989   -5.480615   5.455195 O.3        1 UNL1     -0.4436
     32 C         0.693186   -4.679135   4.269388 C.3        1 UNL1     0.3143
     33 C         -0.296272   -3.547684   4.461758 C.2        1 UNL1     0.2504
     34 C         -0.615578   -7.355549   7.241142 C.3        1 UNL1     -0.0327
     35 O         2.001315   -4.094289   4.271654 O.2        1 UNL1     -0.4528
     36 C         2.954417   -3.662307   0.622945 C.3        1 UNL1     0.0854
     37 C         2.204141   -2.869764   -0.515688 C.3        1 UNL1     0.0236
     38 C         3.091785   -1.766989   -1.26916 C.3        1 UNL1     0.1131
     39 C         3.899815   -0.699761   -0.426318 C.3        1 UNL1     0.0200
     40 C         3.192132   0.055021   0.882088 C.3        1 UNL1     0.0661
     41 C         1.671826   0.807466   0.892521 C.3        1 UNL1     0.0091
     42 C         0.435706   0.974071   2.237754 C.3        1 UNL1     0.0661
     43 C         -4.690673   -4.384667   6.823988 C.2        1 UNL1     0.2131
     44 O         -5.451289   -5.219444   7.279344 O.2        1 UNL1     -0.2851
     45 O         -3.299214   -6.459943   8.097548 O.3        1 UNL1     -0.5056
     46 O         -0.265386   -2.431799   3.993036 O.2        1 UNL1     -0.2836
     47 C         0.968992   1.845519   4.702302 C.3        1 UNL1     -0.0566
     48 O         0.217768   2.423553   2.012764 O.3        1 UNL1     -0.3909
     49 C         0.916594   0.398964   -0.352567 C.3        1 UNL1     -0.0577
     50 O         3.357859   -0.715677   2.055238 O.3        1 UNL1     -0.3910
     51 O         4.241354   -3.192458   0.955311 O.3        1 UNL1     -0.3753
     52 C         0.700697   -2.626434   -0.161578 C.3        1 UNL1     -0.0564
     53 O         2.485375   -1.283375   -2.55396 O.3        1 UNL1     -0.4608
     54 C         2.534967   0.003768   -3.021649 C.2        1 UNL1     0.3042
     55 O         3.539116   0.670807   -3.267786 O.2        1 UNL1     -0.2512
     56 C         1.182255   0.595568   -3.298519 C.3        1 UNL1     0.0332
     57 C         5.390788   -1.251724   -0.251643 C.3        1 UNL1     -0.0567
     58 C         0.215292   -5.565657   3.095836 C.3        1 UNL1     0.0210
     59 C         5.314434   -4.028125   0.524004 C.3        1 UNL1     0.0372
     60 C         2.201463   -3.79141   1.900268 C.2        1 UNL1     -0.0208
     61 C         2.603719   -3.627336   3.161226 C.2        1 UNL1     0.0882
     62 H         0.23943   -0.078447   4.110348 H        1 UNL1     0.0365
     63 H         -1.175907   -0.460618   5.531965 H        1 UNL1     0.0576
     64 H         -3.089702   1.93128   5.868103 H        1 UNL1     0.0615
     65 H         -3.023179   -0.931091   7.11721 H        1 UNL1     0.0622
     66 H         3.05541   -4.683104   0.228204 H        1 UNL1     0.0645
     67 H         2.060652   -3.618745   -1.313809 H        1 UNL1     0.0362
     68 H         3.854066   -2.420848   -1.719624 H        1 UNL1     0.0741
     69 H         4.154892   0.131415   -1.070128 H        1 UNL1     0.0359
     70 H         3.887489   0.906588   1.010044 H        1 UNL1     0.0600
     71 H         1.967374   1.843918   0.636836 H        1 UNL1     0.0348
     72 H         1.390812   0.741411   2.73066 H        1 UNL1     0.0602
     73 H         1.235159   -4.1821   1.698114 H        1 UNL1     0.0628
     74 H         3.554514   -3.179257   3.451831 H        1 UNL1     0.1022
     75 H         -6.747244   0.119937   8.748673 H        1 UNL1     0.0279
     76 H         -6.087239   1.640897   8.296597 H        1 UNL1     0.0279
     77 H         -6.930375   0.571649   7.104486 H        1 UNL1     0.0279
     78 H         -6.568378   -1.707618   6.516112 H        1 UNL1     0.1553
     79 H         -5.782719   -0.774811   4.954435 H        1 UNL1     0.1484
     80 H         -4.286956   -1.655598   1.574139 H        1 UNL1     0.0317
     81 H         -4.92775   -2.867237   2.674702 H        1 UNL1     0.0317
     82 H         -6.840672   -1.370131   3.301686 H        1 UNL1     0.0428
     83 H         -6.759348   -1.679179   1.581343 H        1 UNL1     0.0428
     84 H         -5.191831   2.041628   2.923589 H        1 UNL1     0.0428
     85 H         -5.871113   1.012178   4.135171 H        1 UNL1     0.0428
     86 H         -3.386906   0.999991   3.904041 H        1 UNL1     0.0317
     87 H         -3.440307   0.45568   2.29059 H        1 UNL1     0.0317
     88 H         -7.214857   1.963695   1.781412 H        1 UNL1     0.0429
     89 H         -7.602066   0.615846   0.709214 H        1 UNL1     0.0429
     90 H         -8.581517   1.263634   3.477586 H        1 UNL1     0.0308
     91 H         -9.724683   -0.204054   1.041253 H        1 UNL1     0.0233
     92 H         -10.579077   -0.107626   2.602089 H        1 UNL1     0.0233
     93 H         -10.243145   1.347657   1.688906 H        1 UNL1     0.0233
     94 H         -9.047413   -1.274097   3.812005 H        1 UNL1     0.0233
     95 H         -7.637873   -1.48728   2.762205 H        1 UNL1     0.0233
     96 H         -7.478821   -0.594878   4.292667 H        1 UNL1     0.0233
     97 H         -0.272628   -7.921674   6.38026 H        1 UNL1     0.0280
     98 H         0.275632   -7.174328   7.856089 H        1 UNL1     0.0280
     99 H         -1.318161   -7.985218   7.811221 H        1 UNL1     0.0280
     100 H         -4.016073   -6.001751   8.499787 H        1 UNL1     0.2922
     101 H         0.675849   2.893199   4.638354 H        1 UNL1     0.0236
     102 H         1.968917   1.675592   4.304483 H        1 UNL1     0.0236
     103 H         1.058814   1.645513   5.783099 H        1 UNL1     0.0236
     104 H         1.083385   2.821782   1.79576 H        1 UNL1     0.2098
     105 H         0.684811   1.219652   -1.026777 H        1 UNL1     0.0234
     106 H         1.361896   -0.428872   -0.904219 H        1 UNL1     0.0234
     107 H         0.0   -0.0   0.0 H        1 UNL1     0.0234
     108 H         2.744901   -0.358141   2.726221 H        1 UNL1     0.2098
     109 H         0.147541   -3.566492   -0.027332 H        1 UNL1     0.0234
     110 H         0.563557   -1.991448   0.720312 H        1 UNL1     0.0234
     111 H         0.17859   -2.086105   -0.962449 H        1 UNL1     0.0234
     112 H         1.157209   1.638086   -2.967049 H        1 UNL1     0.0342
     113 H         0.906142   0.512733   -4.348635 H        1 UNL1     0.0342
     114 H         0.437679   0.03822   -2.713597 H        1 UNL1     0.0342
     115 H         6.127684   -0.437105   -0.227839 H        1 UNL1     0.0234
     116 H         5.538618   -1.854571   0.646561 H        1 UNL1     0.0234
     117 H         5.747552   -1.836578   -1.116864 H        1 UNL1     0.0234
     118 H         1.045726   -5.849949   2.426087 H        1 UNL1     0.0309
     119 H         -0.305042   -6.470625   3.42521 H        1 UNL1     0.0309
     120 H         -0.47892   -5.042325   2.429277 H        1 UNL1     0.0309
     121 H         5.337745   -3.999045   -0.565018 H        1 UNL1     0.0524
     122 H         6.293303   -3.67264   0.886611 H        1 UNL1     0.0524
     123 H         5.159491   -5.046644   0.868541 H        1 UNL1     0.0524
@<TRIPOS>BOND
     1     1     2    1
     2     1    42    1
     3     2     3    2
     4     3     4    1
     5     4     5    2
     6     5     7    1
     7     6    75    1
     8     6    76    1
     9     6    77    1
    10     7     9   am
    11     9    10    1
    12    10    11    2
    13    10    43    1
    14    11    14    1
    15    11    15    1
    16    12    13   ar
    17    12    27   ar
    18    12    43    1
    19    13    14    1
    20    13    30   ar
    21    14    17    2
    22    15    16    1
    23    16    17    1
    24    16    18    1
    25    16    22    1
    26    18    19    1
    27    19    20    1
    28    20    21    1
    29    21    22    1
    30    23    24    1
    31    23    88    1
    32    23    89    1
    33    24    25    1
    34    24    26    1
    35    24    90    1
    36    25    91    1
    37    25    92    1
    38    25    93    1
    39    26    94    1
    40    26    95    1
    41    26    96    1
    42    27    28   ar
    43    28    29   ar
    44    29    30   ar
    45    29    31    1
    46    30    33    1
    47    31    32    1
    48    32    33    1
    49    32    35    1
    50    34    97    1
    51    34    98    1
    52    34    99    1
    53    35    61    1
    54    36    37    1
    55    36    60    1
    56    37    38    1
    57    38    39    1
    58    39    40    1
    59    40    41    1
    60    41    42    1
    61    45   100    1
    62    47   101    1
    63    47   102    1
    64    47   103    1
    65    48   104    1
    66    49   105    1
    67    49   106    1
    68    49   107    1
    69    50   108    1
    70    51    59    1
    71    52   109    1
    72    52   110    1
    73    52   111    1
    74    53    54    1
    75    54    55    2
    76    54    56    1
    77    56   112    1
    78    56   113    1
    79    56   114    1
    80    57   115    1
    81    57   116    1
    82    57   117    1
    83    58   118    1
    84    58   119    1
    85    58   120    1
    86    59   121    1
    87    59   122    1
    88    59   123    1
    89    60    61    2
    90     1    47    1
    91     1    62    1
    92     2    63    1
    93     3    64    1
    94     4    65    1
    95     5     6    1
    96     7     8    2
    97     9    78    1
    98    15    79    1
    99    18    80    1
   100    18    81    1
   101    19    82    1
   102    19    83    1
   103    20    23    1
   104    21    84    1
   105    21    85    1
   106    22    86    1
   107    22    87    1
   108    27    45    1
   109    28    34    1
   110    32    58    1
   111    33    46    2
   112    36    51    1
   113    36    66    1
   114    37    52    1
   115    37    67    1
   116    38    53    1
   117    38    68    1
   118    42    48    1
   119    42    72    1
   120    43    44    2
   121    60    73    1
   122    61    74    1
   123    39    69    1
   124    39    57    1
   125    40    70    1
   126    40    50    1
   127    41    71    1
   128    41    49    1
