@<TRIPOS>MOLECULE
*****
 123 128 0 0 0
SMALL
GASTEIGER

@<TRIPOS>ATOM
     1 C         -1.663222   3.748846   1.145538 C.3        1 UNL1     0.0009
     2 C         -3.40625   4.375911   1.070178 C.2        1 UNL1     -0.0787
     3 C         -4.480623   5.01533   0.34017 C.2        1 UNL1     -0.0649
     4 C         -6.085676   5.235707   0.831695 C.2        1 UNL1     -0.0542
     5 C         -7.409058   5.49077   0.395022 C.2        1 UNL1     0.0115
     6 C         -8.270435   5.903943   -0.829984 C.3        1 UNL1     -0.0348
     7 C         -8.630251   5.162828   1.384026 C.2        1 UNL1     0.2441
     8 O         -9.22241   6.024806   2.018744 O.2        1 UNL1     -0.2702
     9 N         -9.143196   3.858614   1.274189 N.am        1 UNL1     -0.2772
     10 C         -8.456001   3.00102   2.10221 C.2        1 UNL1     0.1049
     11 C         -7.318716   2.523123   1.630596 C.2        1 UNL1     0.0801
     12 C         -7.634394   2.74454   4.450936 C.ar        1 UNL1     0.0753
     13 C         -6.35632   2.433422   3.886718 C.ar        1 UNL1     0.0305
     14 C         -6.191523   2.184225   2.456405 C.2        1 UNL1     0.0924
     15 N         -6.812956   2.567648   0.386107 N.pl3        1 UNL1     -0.3170
     16 C         -5.628895   1.750494   0.363508 C.3        1 UNL1     0.1275
     17 N         -5.114862   1.790796   1.781912 N.2        1 UNL1     -0.2557
     18 C         -6.076199   0.313033   0.115866 C.3        1 UNL1     0.0016
     19 C         -6.892103   0.27165   -1.166388 C.3        1 UNL1     0.0026
     20 N         -6.06626   0.759577   -2.262262 N.3        1 UNL1     -0.3018
     21 C         -5.537082   2.113668   -2.086826 C.3        1 UNL1     0.0026
     22 C         -4.717187   2.131139   -0.795563 C.3        1 UNL1     0.0016
     23 C         -6.637892   0.48381   -3.565272 C.3        1 UNL1     0.0012
     24 C         -6.57775   -1.0208   -3.872335 C.3        1 UNL1     -0.0339
     25 C         -6.355172   -1.280369   -5.371381 C.3        1 UNL1     -0.0615
     26 C         -5.505016   -1.682751   -3.025079 C.3        1 UNL1     -0.0615
     27 C         -7.806162   2.86157   5.828222 C.ar        1 UNL1     0.1347
     28 C         -6.787049   2.651227   6.739932 C.ar        1 UNL1     0.0342
     29 C         -5.526848   2.394244   6.1594 C.ar        1 UNL1     0.1435
     30 C         -5.332152   2.309811   4.780203 C.ar        1 UNL1     0.0774
     31 O         -4.45801   2.059532   6.914755 O.3        1 UNL1     -0.4436
     32 C         -3.548535   1.431925   5.998329 C.3        1 UNL1     0.3143
     33 C         -3.934457   1.961583   4.632042 C.2        1 UNL1     0.2504
     34 C         -6.950052   2.511752   8.227909 C.3        1 UNL1     -0.0327
     35 O         -2.238366   1.935718   6.286259 O.2        1 UNL1     -0.4528
     36 C         0.172043   -0.850225   5.371635 C.3        1 UNL1     0.0854
     37 C         0.36244   -1.58994   3.991746 C.3        1 UNL1     0.0236
     38 C         1.858111   -1.567564   3.413636 C.3        1 UNL1     0.1131
     39 C         2.638486   -0.195677   3.307748 C.3        1 UNL1     0.0200
     40 C         1.87273   1.169624   2.731548 C.3        1 UNL1     0.0661
     41 C         0.965776   1.271472   1.301628 C.3        1 UNL1     0.0091
     42 C         -0.496846   2.299761   0.890822 C.3        1 UNL1     0.0661
     43 C         -8.790266   2.850279   3.526253 C.2        1 UNL1     0.2131
     44 O         -9.948367   2.718611   3.878676 O.2        1 UNL1     -0.2851
     45 O         -9.072182   3.211768   6.292971 O.3        1 UNL1     -0.5056
     46 O         -3.239077   2.08846   3.649085 O.2        1 UNL1     -0.2836
     47 C         -0.669091   4.933796   1.278128 C.3        1 UNL1     -0.0566
     48 O         0.044982   2.751883   -0.413449 O.3        1 UNL1     -0.3909
     49 C         0.673823   -0.128092   0.808192 C.3        1 UNL1     -0.0577
     50 O         1.205507   1.848612   3.776303 O.3        1 UNL1     -0.3910
     51 O         1.283802   -0.119   5.837182 O.3        1 UNL1     -0.3753
     52 C         -0.888439   -1.428402   3.067541 C.3        1 UNL1     -0.0564
     53 O         2.089063   -2.554646   2.306994 O.3        1 UNL1     -0.4608
     54 C         3.090638   -2.483655   1.374397 C.2        1 UNL1     0.3042
     55 O         3.421492   -3.350443   0.56628 O.2        1 UNL1     -0.2512
     56 C         3.791814   -1.155426   1.344841 C.3        1 UNL1     0.0332
     57 C         3.534952   -0.04792   4.624065 C.3        1 UNL1     -0.0567
     58 C         -3.852016   -0.083587   6.049835 C.3        1 UNL1     0.0210
     59 C         1.058945   0.611298   7.042159 C.3        1 UNL1     0.0372
     60 C         -1.001154   0.063147   5.438881 C.2        1 UNL1     -0.0208
     61 C         -1.106842   1.300131   5.926165 C.2        1 UNL1     0.0882
     62 H         -1.857363   3.387916   2.162765 H        1 UNL1     0.0365
     63 H         -3.733203   4.192257   2.095772 H        1 UNL1     0.0576
     64 H         -4.377124   5.281689   -0.714082 H        1 UNL1     0.0615
     65 H         -6.061651   5.021831   1.903685 H        1 UNL1     0.0622
     66 H         -0.031736   -1.655929   6.090914 H        1 UNL1     0.0645
     67 H         0.239461   -2.65825   4.241046 H        1 UNL1     0.0362
     68 H         2.370197   -2.134102   4.206305 H        1 UNL1     0.0741
     69 H         3.461371   -0.315874   2.615779 H        1 UNL1     0.0359
     70 H         2.753127   1.802235   2.508468 H        1 UNL1     0.0600
     71 H         1.755858   1.590699   0.59394 H        1 UNL1     0.0348
     72 H         -0.021836   2.780884   1.758118 H        1 UNL1     0.0602
     73 H         -1.87123   -0.462807   5.132959 H        1 UNL1     0.0628
     74 H         -0.259636   1.926967   6.206444 H        1 UNL1     0.1022
     75 H         -7.823233   6.789331   -1.342948 H        1 UNL1     0.0279
     76 H         -8.34537   5.1787   -1.637125 H        1 UNL1     0.0279
     77 H         -9.257536   6.295223   -0.54322 H        1 UNL1     0.0279
     78 H         -9.024987   3.523789   0.320251 H        1 UNL1     0.1553
     79 H         -7.36369   2.749629   -0.432738 H        1 UNL1     0.1484
     80 H         -5.190613   -0.330321   0.048033 H        1 UNL1     0.0317
     81 H         -6.672112   -0.061422   0.955105 H        1 UNL1     0.0317
     82 H         -7.819066   0.857206   -1.078198 H        1 UNL1     0.0428
     83 H         -7.202411   -0.761902   -1.323003 H        1 UNL1     0.0428
     84 H         -4.856395   2.425437   -2.885122 H        1 UNL1     0.0428
     85 H         -6.334216   2.869674   -2.105493 H        1 UNL1     0.0428
     86 H         -4.239226   3.092825   -0.769053 H        1 UNL1     0.0317
     87 H         -3.876041   1.431817   -0.876297 H        1 UNL1     0.0317
     88 H         -7.690469   0.795455   -3.549353 H        1 UNL1     0.0429
     89 H         -6.141251   1.068348   -4.350407 H        1 UNL1     0.0429
     90 H         -7.524612   -1.48637   -3.574158 H        1 UNL1     0.0308
     91 H         -5.777698   -0.473938   -5.83322 H        1 UNL1     0.0233
     92 H         -5.834613   -2.228352   -5.526155 H        1 UNL1     0.0233
     93 H         -7.297927   -1.354967   -5.926795 H        1 UNL1     0.0233
     94 H         -4.715483   -2.090029   -3.665858 H        1 UNL1     0.0233
     95 H         -5.050185   -0.946786   -2.356165 H        1 UNL1     0.0233
     96 H         -5.917617   -2.498201   -2.424439 H        1 UNL1     0.0233
     97 H         -7.900451   2.058179   8.492946 H        1 UNL1     0.0280
     98 H         -6.177004   1.870105   8.67056 H        1 UNL1     0.0280
     99 H         -6.898476   3.506674   8.699678 H        1 UNL1     0.0280
     100 H         -9.455411   3.955615   5.862332 H        1 UNL1     0.2922
     101 H         -0.300858   4.991955   2.302178 H        1 UNL1     0.0236
     102 H         -1.084556   5.88194   0.938431 H        1 UNL1     0.0236
     103 H         0.234779   4.786798   0.663632 H        1 UNL1     0.0236
     104 H         -0.255682   2.117786   -1.093519 H        1 UNL1     0.2098
     105 H         1.543356   -0.663165   0.434802 H        1 UNL1     0.0234
     106 H         0.118863   -0.751535   1.509096 H        1 UNL1     0.0234
     107 H         -0.0   0.0   0.0 H        1 UNL1     0.0234
     108 H         0.806671   2.652723   3.391461 H        1 UNL1     0.2098
     109 H         -1.10692   -0.374917   2.843607 H        1 UNL1     0.0234
     110 H         -0.808306   -1.992822   2.132259 H        1 UNL1     0.0234
     111 H         -1.795826   -1.825914   3.541439 H        1 UNL1     0.0234
     112 H         4.562338   -1.158564   0.567906 H        1 UNL1     0.0342
     113 H         3.097306   -0.328756   1.202996 H        1 UNL1     0.0342
     114 H         4.290309   -1.008996   2.312945 H        1 UNL1     0.0342
     115 H         4.48309   0.467108   4.416773 H        1 UNL1     0.0234
     116 H         3.042413   0.486308   5.438961 H        1 UNL1     0.0234
     117 H         3.898204   -1.012114   5.019437 H        1 UNL1     0.0234
     118 H         -3.506962   -0.543716   6.992292 H        1 UNL1     0.0309
     119 H         -4.912232   -0.314579   5.905657 H        1 UNL1     0.0309
     120 H         -3.31169   -0.646847   5.28114 H        1 UNL1     0.0309
     121 H         2.011103   1.043981   7.347997 H        1 UNL1     0.0524
     122 H         0.346935   1.441537   6.901509 H        1 UNL1     0.0524
     123 H         0.681321   -0.049547   7.817258 H        1 UNL1     0.0524
@<TRIPOS>BOND
     1     1     2    1
     2     1    42    1
     3     2     3    2
     4     3     4    1
     5     4     5    2
     6     5     7    1
     7     6    75    1
     8     6    76    1
     9     6    77    1
    10     7     9   am
    11     9    10    1
    12    10    11    2
    13    10    43    1
    14    11    14    1
    15    11    15    1
    16    12    13   ar
    17    12    27   ar
    18    12    43    1
    19    13    14    1
    20    13    30   ar
    21    14    17    2
    22    15    16    1
    23    16    17    1
    24    16    18    1
    25    16    22    1
    26    18    19    1
    27    19    20    1
    28    20    21    1
    29    21    22    1
    30    23    24    1
    31    23    88    1
    32    23    89    1
    33    24    25    1
    34    24    26    1
    35    24    90    1
    36    25    91    1
    37    25    92    1
    38    25    93    1
    39    26    94    1
    40    26    95    1
    41    26    96    1
    42    27    28   ar
    43    28    29   ar
    44    29    30   ar
    45    29    31    1
    46    30    33    1
    47    31    32    1
    48    32    33    1
    49    32    35    1
    50    34    97    1
    51    34    98    1
    52    34    99    1
    53    35    61    1
    54    36    37    1
    55    36    60    1
    56    37    38    1
    57    38    39    1
    58    39    40    1
    59    40    41    1
    60    41    42    1
    61    45   100    1
    62    47   101    1
    63    47   102    1
    64    47   103    1
    65    48   104    1
    66    49   105    1
    67    49   106    1
    68    49   107    1
    69    50   108    1
    70    51    59    1
    71    52   109    1
    72    52   110    1
    73    52   111    1
    74    53    54    1
    75    54    55    2
    76    54    56    1
    77    56   112    1
    78    56   113    1
    79    56   114    1
    80    57   115    1
    81    57   116    1
    82    57   117    1
    83    58   118    1
    84    58   119    1
    85    58   120    1
    86    59   121    1
    87    59   122    1
    88    59   123    1
    89    60    61    2
    90     1    47    1
    91     1    62    1
    92     2    63    1
    93     3    64    1
    94     4    65    1
    95     5     6    1
    96     7     8    2
    97     9    78    1
    98    15    79    1
    99    18    80    1
   100    18    81    1
   101    19    82    1
   102    19    83    1
   103    20    23    1
   104    21    84    1
   105    21    85    1
   106    22    86    1
   107    22    87    1
   108    27    45    1
   109    28    34    1
   110    32    58    1
   111    33    46    2
   112    36    51    1
   113    36    66    1
   114    37    52    1
   115    37    67    1
   116    38    53    1
   117    38    68    1
   118    42    48    1
   119    42    72    1
   120    43    44    2
   121    60    73    1
   122    61    74    1
   123    39    69    1
   124    39    57    1
   125    40    70    1
   126    40    50    1
   127    41    71    1
   128    41    49    1
