@<TRIPOS>MOLECULE
*****
 123 128 0 0 0
SMALL
GASTEIGER

@<TRIPOS>ATOM
     1 C         5.164035   1.769745   0.44723 C.3        1 UNL1     0.0009
     2 C         6.590094   2.581771   -0.415328 C.2        1 UNL1     -0.0787
     3 C         7.86661   2.488863   -1.092027 C.2        1 UNL1     -0.0649
     4 C         8.732521   3.727617   -1.854943 C.2        1 UNL1     -0.0542
     5 C         9.743269   4.024498   -2.802218 C.2        1 UNL1     0.0115
     6 C         10.866542   3.40373   -3.677562 C.3        1 UNL1     -0.0348
     7 C         9.827375   5.508188   -3.409325 C.2        1 UNL1     0.2441
     8 O         10.651117   6.333144   -3.038618 O.2        1 UNL1     -0.2702
     9 N         9.066315   5.712214   -4.573503 N.am        1 UNL1     -0.2772
     10 C         7.784774   6.093645   -4.248719 C.2        1 UNL1     0.1049
     11 C         6.945477   5.118773   -3.949675 C.2        1 UNL1     0.0801
     12 C         6.491996   7.694869   -2.826698 C.ar        1 UNL1     0.0753
     13 C         5.741393   6.563833   -2.372868 C.ar        1 UNL1     0.0305
     14 C         5.858097   5.25868   -3.019402 C.2        1 UNL1     0.0924
     15 N         7.072132   3.790319   -4.109981 N.pl3        1 UNL1     -0.3170
     16 C         5.807458   3.18596   -3.785013 C.3        1 UNL1     0.1275
     17 N         5.1756   4.138506   -2.799551 N.2        1 UNL1     -0.2557
     18 C         4.94358   3.241682   -5.041322 C.3        1 UNL1     0.0016
     19 C         5.691537   2.560772   -6.176448 C.3        1 UNL1     0.0026
     20 N         5.970576   1.183744   -5.793097 N.3        1 UNL1     -0.3018
     21 C         6.745171   1.026338   -4.560378 C.3        1 UNL1     0.0026
     22 C         5.973259   1.713579   -3.432661 C.3        1 UNL1     0.0016
     23 C         6.408886   0.366125   -6.906662 C.3        1 UNL1     0.0012
     24 C         5.246091   0.112046   -7.878829 C.3        1 UNL1     -0.0339
     25 C         5.326953   1.035141   -9.105783 C.3        1 UNL1     -0.0615
     26 C         5.214658   -1.351978   -8.28185 C.3        1 UNL1     -0.0615
     27 C         6.286815   8.961669   -2.285186 C.ar        1 UNL1     0.1347
     28 C         5.334931   9.227225   -1.316967 C.ar        1 UNL1     0.0342
     29 C         4.641959   8.089889   -0.850685 C.ar        1 UNL1     0.1435
     30 C         4.862273   6.808811   -1.358152 C.ar        1 UNL1     0.0774
     31 O         3.607868   8.199142   0.011711 O.3        1 UNL1     -0.4436
     32 C         2.890016   6.963411   -0.124415 C.3        1 UNL1     0.3143
     33 C         3.902744   5.974483   -0.665356 C.2        1 UNL1     0.2504
     34 C         4.886336   10.59146   -0.872305 C.3        1 UNL1     -0.0327
     35 O         2.542456   6.525129   1.194814 O.2        1 UNL1     -0.4528
     36 C         -0.69599   4.579806   0.82566 C.3        1 UNL1     0.0854
     37 C         -1.003852   3.318071   -0.069196 C.3        1 UNL1     0.0236
     38 C         -1.592497   2.054525   0.723707 C.3        1 UNL1     0.1131
     39 C         -0.853452   1.526433   2.018775 C.3        1 UNL1     0.0200
     40 C         0.80861   1.38764   2.045677 C.3        1 UNL1     0.0661
     41 C         1.761037   0.622819   0.868587 C.3        1 UNL1     0.0091
     42 C         3.462236   0.992365   0.290002 C.3        1 UNL1     0.0661
     43 C         7.433225   7.491128   -3.955785 C.2        1 UNL1     0.2131
     44 O         7.823276   8.390885   -4.677611 O.2        1 UNL1     -0.2851
     45 O         7.090905   10.00011   -2.750502 O.3        1 UNL1     -0.5056
     46 O         3.924746   4.771012   -0.534864 O.2        1 UNL1     -0.2836
     47 C         5.574463   1.341763   1.88193 C.3        1 UNL1     -0.0566
     48 O         3.917217   -0.416912   0.367771 O.3        1 UNL1     -0.3909
     49 C         0.917195   0.386942   -0.364209 C.3        1 UNL1     -0.0577
     50 O         1.407202   2.6079   2.433462 O.3        1 UNL1     -0.3910
     51 O         -0.807365   4.389515   2.218074 O.3        1 UNL1     -0.3753
     52 C         0.03132   3.16194   -1.230657 C.3        1 UNL1     -0.0564
     53 O         -2.198571   1.013174   -0.171048 O.3        1 UNL1     -0.4608
     54 C         -2.393606   -0.302558   0.15871 C.2        1 UNL1     0.3042
     55 O         -1.810602   -1.282638   -0.30323 O.2        1 UNL1     -0.2512
     56 C         -3.404806   -0.505279   1.250997 C.3        1 UNL1     0.0332
     57 C         -1.566344   2.19239   3.286238 C.3        1 UNL1     -0.0567
     58 C         1.804571   7.204215   -1.199287 C.3        1 UNL1     0.0210
     59 C         -1.118988   5.56718   2.960949 C.3        1 UNL1     0.0372
     60 C         0.628411   5.214304   0.583719 C.2        1 UNL1     -0.0208
     61 C         1.546998   5.653176   1.445308 C.2        1 UNL1     0.0882
     62 H         4.684887   2.751969   0.53869 H        1 UNL1     0.0365
     63 H         6.320481   3.634472   -0.307624 H        1 UNL1     0.0576
     64 H         8.326274   1.523898   -1.317102 H        1 UNL1     0.0615
     65 H         8.244719   4.641001   -1.503855 H        1 UNL1     0.0622
     66 H         -1.446302   5.323326   0.521923 H        1 UNL1     0.0645
     67 H         -1.875865   3.623963   -0.673003 H        1 UNL1     0.0362
     68 H         -2.53828   2.487524   1.08361 H        1 UNL1     0.0741
     69 H         -1.179175   0.513982   2.216904 H        1 UNL1     0.0359
     70 H         0.930628   0.727703   2.925822 H        1 UNL1     0.0600
     71 H         1.812431   -0.398193   1.295027 H        1 UNL1     0.0348
     72 H         3.362787   1.480063   1.270602 H        1 UNL1     0.0602
     73 H         0.7366   5.412108   -0.453786 H        1 UNL1     0.0628
     74 H         1.539494   5.442363   2.515233 H        1 UNL1     0.1022
     75 H         10.89804   2.295165   -3.546699 H        1 UNL1     0.0279
     76 H         10.756667   3.509457   -4.754511 H        1 UNL1     0.0279
     77 H         11.874167   3.690302   -3.342495 H        1 UNL1     0.0279
     78 H         9.003344   4.842059   -5.097852 H        1 UNL1     0.1553
     79 H         7.733809   3.365079   -4.733108 H        1 UNL1     0.1484
     80 H         3.986002   2.746833   -4.838992 H        1 UNL1     0.0317
     81 H         4.710444   4.277525   -5.310259 H        1 UNL1     0.0317
     82 H         6.617871   3.095868   -6.43236 H        1 UNL1     0.0428
     83 H         5.058531   2.613439   -7.062778 H        1 UNL1     0.0428
     84 H         6.872376   -0.016139   -4.252364 H        1 UNL1     0.0428
     85 H         7.772831   1.398559   -4.672999 H        1 UNL1     0.0428
     86 H         6.498474   1.465252   -2.529073 H        1 UNL1     0.0317
     87 H         4.996872   1.23196   -3.299215 H        1 UNL1     0.0317
     88 H         7.198185   0.911188   -7.440712 H        1 UNL1     0.0429
     89 H         6.848316   -0.577907   -6.559563 H        1 UNL1     0.0429
     90 H         4.297822   0.300791   -7.361747 H        1 UNL1     0.0308
     91 H         6.278296   0.914195   -9.632489 H        1 UNL1     0.0233
     92 H         4.505851   0.831573   -9.79713 H        1 UNL1     0.0233
     93 H         5.244678   2.095241   -8.836984 H        1 UNL1     0.0233
     94 H         4.552888   -1.49245   -9.14334 H        1 UNL1     0.0233
     95 H         6.216875   -1.681991   -8.569276 H        1 UNL1     0.0233
     96 H         4.856101   -1.983375   -7.464082 H        1 UNL1     0.0233
     97 H         4.060335   10.539704   -0.169259 H        1 UNL1     0.0280
     98 H         5.684632   11.142372   -0.358034 H        1 UNL1     0.0280
     99 H         4.558889   11.175813   -1.747751 H        1 UNL1     0.0280
     100 H         6.619074   10.761604   -3.038817 H        1 UNL1     0.2922
     101 H         4.714637   0.915991   2.398721 H        1 UNL1     0.0236
     102 H         6.037997   2.14556   2.45292 H        1 UNL1     0.0236
     103 H         6.324787   0.533587   1.874308 H        1 UNL1     0.0236
     104 H         4.339393   -0.542849   1.240054 H        1 UNL1     0.2098
     105 H         0.695981   1.284939   -0.935591 H        1 UNL1     0.0234
     106 H         1.284134   -0.39953   -1.023562 H        1 UNL1     0.0234
     107 H         0.0   -0.0   0.0 H        1 UNL1     0.0234
     108 H         1.253837   3.248331   1.712285 H        1 UNL1     0.2098
     109 H         1.06123   3.065004   -0.859713 H        1 UNL1     0.0234
     110 H         -0.196831   2.32636   -1.901102 H        1 UNL1     0.0234
     111 H         0.034487   4.03961   -1.89068 H        1 UNL1     0.0234
     112 H         -3.497121   -1.571397   1.479503 H        1 UNL1     0.0342
     113 H         -3.161702   0.066381   2.145396 H        1 UNL1     0.0342
     114 H         -4.37951   -0.153495   0.885805 H        1 UNL1     0.0342
     115 H         -2.637214   1.949926   3.326685 H        1 UNL1     0.0234
     116 H         -1.128157   1.904811   4.244016 H        1 UNL1     0.0234
     117 H         -1.598889   3.2947   3.243884 H        1 UNL1     0.0234
     118 H         0.90326   7.68319   -0.778301 H        1 UNL1     0.0309
     119 H         2.16298   7.797637   -2.046398 H        1 UNL1     0.0309
     120 H         1.419444   6.270841   -1.624253 H        1 UNL1     0.0309
     121 H         -0.284699   6.258895   2.847594 H        1 UNL1     0.0524
     122 H         -2.023226   6.072972   2.583372 H        1 UNL1     0.0524
     123 H         -1.263516   5.32286   4.009526 H        1 UNL1     0.0524
@<TRIPOS>BOND
     1     1     2    1
     2     1    42    1
     3     2     3    2
     4     3     4    1
     5     4     5    2
     6     5     7    1
     7     6    75    1
     8     6    76    1
     9     6    77    1
    10     7     9   am
    11     9    10    1
    12    10    11    2
    13    10    43    1
    14    11    14    1
    15    11    15    1
    16    12    13   ar
    17    12    27   ar
    18    12    43    1
    19    13    14    1
    20    13    30   ar
    21    14    17    2
    22    15    16    1
    23    16    17    1
    24    16    18    1
    25    16    22    1
    26    18    19    1
    27    19    20    1
    28    20    21    1
    29    21    22    1
    30    23    24    1
    31    23    88    1
    32    23    89    1
    33    24    25    1
    34    24    26    1
    35    24    90    1
    36    25    91    1
    37    25    92    1
    38    25    93    1
    39    26    94    1
    40    26    95    1
    41    26    96    1
    42    27    28   ar
    43    28    29   ar
    44    29    30   ar
    45    29    31    1
    46    30    33    1
    47    31    32    1
    48    32    33    1
    49    32    35    1
    50    34    97    1
    51    34    98    1
    52    34    99    1
    53    35    61    1
    54    36    37    1
    55    36    60    1
    56    37    38    1
    57    38    39    1
    58    39    40    1
    59    40    41    1
    60    41    42    1
    61    45   100    1
    62    47   101    1
    63    47   102    1
    64    47   103    1
    65    48   104    1
    66    49   105    1
    67    49   106    1
    68    49   107    1
    69    50   108    1
    70    51    59    1
    71    52   109    1
    72    52   110    1
    73    52   111    1
    74    53    54    1
    75    54    55    2
    76    54    56    1
    77    56   112    1
    78    56   113    1
    79    56   114    1
    80    57   115    1
    81    57   116    1
    82    57   117    1
    83    58   118    1
    84    58   119    1
    85    58   120    1
    86    59   121    1
    87    59   122    1
    88    59   123    1
    89    60    61    2
    90     1    47    1
    91     1    62    1
    92     2    63    1
    93     3    64    1
    94     4    65    1
    95     5     6    1
    96     7     8    2
    97     9    78    1
    98    15    79    1
    99    18    80    1
   100    18    81    1
   101    19    82    1
   102    19    83    1
   103    20    23    1
   104    21    84    1
   105    21    85    1
   106    22    86    1
   107    22    87    1
   108    27    45    1
   109    28    34    1
   110    32    58    1
   111    33    46    2
   112    36    51    1
   113    36    66    1
   114    37    52    1
   115    37    67    1
   116    38    53    1
   117    38    68    1
   118    42    48    1
   119    42    72    1
   120    43    44    2
   121    60    73    1
   122    61    74    1
   123    39    69    1
   124    39    57    1
   125    40    70    1
   126    40    50    1
   127    41    71    1
   128    41    49    1
