@<TRIPOS>MOLECULE
*****
 123 128 0 0 0
SMALL
GASTEIGER

@<TRIPOS>ATOM
     1 C         1.786362   0.768456   -5.057042 C.3        1 UNL1     0.0009
     2 C         1.430776   0.557927   -6.864325 C.2        1 UNL1     -0.0787
     3 C         1.545435   -0.210751   -8.085814 C.2        1 UNL1     -0.0649
     4 C         0.818557   0.100009   -9.582955 C.2        1 UNL1     -0.0542
     5 C         0.430533   -0.462027   -10.824177 C.2        1 UNL1     0.0115
     6 C         0.55272   -1.720455   -11.726813 C.3        1 UNL1     -0.0348
     7 C         -0.647878   0.314029   -11.725152 C.2        1 UNL1     0.2441
     8 O         -0.341402   0.977146   -12.706413 O.2        1 UNL1     -0.2702
     9 N         -1.986535   -0.029872   -11.468479 N.am        1 UNL1     -0.2772
     10 C         -2.50063   0.757881   -10.464251 C.2        1 UNL1     0.1049
     11 C         -2.233717   0.374102   -9.229061 C.2        1 UNL1     0.0801
     12 C         -2.71155   3.136908   -9.72056 C.ar        1 UNL1     0.0753
     13 C         -2.215864   2.701676   -8.450333 C.ar        1 UNL1     0.0305
     14 C         -2.086034   1.283131   -8.124873 C.2        1 UNL1     0.0924
     15 N         -1.715253   -0.780282   -8.776159 N.pl3        1 UNL1     -0.3170
     16 C         -1.788921   -0.761262   -7.339335 C.3        1 UNL1     0.1275
     17 N         -1.743285   0.703348   -6.978007 N.2        1 UNL1     -0.2557
     18 C         -3.181198   -1.249948   -6.951454 C.3        1 UNL1     0.0016
     19 C         -3.407011   -2.618726   -7.573582 C.3        1 UNL1     0.0026
     20 N         -2.378385   -3.528479   -7.088497 N.3        1 UNL1     -0.3018
     21 C         -1.00119   -3.111477   -7.360181 C.3        1 UNL1     0.0026
     22 C         -0.795   -1.736483   -6.722395 C.3        1 UNL1     0.0016
     23 C         -2.671768   -4.917811   -7.378891 C.3        1 UNL1     0.0012
     24 C         -3.371633   -5.581935   -6.182696 C.3        1 UNL1     -0.0339
     25 C         -2.737558   -5.150939   -4.849936 C.3        1 UNL1     -0.0615
     26 C         -4.859844   -5.280551   -6.217019 C.3        1 UNL1     -0.0615
     27 C         -2.946468   4.485058   -9.980221 C.ar        1 UNL1     0.1347
     28 C         -2.761672   5.481887   -9.038821 C.ar        1 UNL1     0.0342
     29 C         -2.226827   5.035486   -7.811698 C.ar        1 UNL1     0.1435
     30 C         -1.952432   3.692622   -7.549697 C.ar        1 UNL1     0.0774
     31 O         -2.093077   5.868457   -6.756579 O.3        1 UNL1     -0.4436
     32 C         -1.989743   4.998989   -5.618941 C.3        1 UNL1     0.3143
     33 C         -1.500436   3.676655   -6.174121 C.2        1 UNL1     0.2504
     34 C         -3.227073   6.906257   -9.159947 C.3        1 UNL1     -0.0327
     35 O         -0.945099   5.51288   -4.783544 O.2        1 UNL1     -0.4528
     36 C         -1.882748   4.549872   -1.233682 C.3        1 UNL1     0.0854
     37 C         -2.160458   3.11963   -0.62969 C.3        1 UNL1     0.0236
     38 C         -1.270607   2.74191   0.649856 C.3        1 UNL1     0.1131
     39 C         0.300581   2.916159   0.592643 C.3        1 UNL1     0.0200
     40 C         1.155693   2.43292   -0.755579 C.3        1 UNL1     0.0661
     41 C         1.029593   0.926336   -1.524938 C.3        1 UNL1     0.0091
     42 C         1.214466   0.473918   -3.293142 C.3        1 UNL1     0.0661
     43 C         -3.052087   2.096396   -10.722372 C.2        1 UNL1     0.2131
     44 O         -3.820144   2.28021   -11.649216 O.2        1 UNL1     -0.2851
     45 O         -3.385472   4.829131   -11.257064 O.3        1 UNL1     -0.5056
     46 O         -0.861957   2.814083   -5.613614 O.2        1 UNL1     -0.2836
     47 C         3.268032   1.179471   -4.843262 C.3        1 UNL1     -0.0566
     48 O         2.10421   -0.681131   -3.022341 O.3        1 UNL1     -0.3909
     49 C         -0.207369   0.220445   -1.015885 C.3        1 UNL1     -0.0577
     50 O         1.1971   3.465754   -1.719562 O.3        1 UNL1     -0.3910
     51 O         -0.780706   5.243408   -0.693365 O.3        1 UNL1     -0.3753
     52 C         -2.503045   2.074994   -1.741588 C.3        1 UNL1     -0.0564
     53 O         -1.783707   1.552928   1.408393 O.3        1 UNL1     -0.4608
     54 C         -1.712539   0.25051   0.988187 C.2        1 UNL1     0.3042
     55 O         -2.400153   -0.294641   0.125728 O.2        1 UNL1     -0.2512
     56 C         -0.617567   -0.536171   1.65067 C.3        1 UNL1     0.0332
     57 C         0.651005   4.342535   1.225754 C.3        1 UNL1     -0.0567
     58 C         -3.426854   4.812264   -5.07915 C.3        1 UNL1     0.0210
     59 C         0.482064   4.609196   -0.890987 C.3        1 UNL1     0.0372
     60 C         -1.730677   4.588771   -2.713723 C.2        1 UNL1     -0.0208
     61 C         -0.833336   5.217305   -3.474295 C.2        1 UNL1     0.0882
     62 H         1.202797   1.696894   -5.06997 H        1 UNL1     0.0365
     63 H         0.926304   1.501224   -7.083796 H        1 UNL1     0.0576
     64 H         2.009646   -1.199414   -8.098537 H        1 UNL1     0.0615
     65 H         0.460749   1.129028   -9.490347 H        1 UNL1     0.0622
     66 H         -2.791607   5.125637   -1.008924 H        1 UNL1     0.0645
     67 H         -3.16466   3.208867   -0.180052 H        1 UNL1     0.0362
     68 H         -1.62406   3.51118   1.353288 H        1 UNL1     0.0741
     69 H         0.745425   2.323249   1.380666 H        1 UNL1     0.0359
     70 H         2.178577   2.407289   -0.333547 H        1 UNL1     0.0600
     71 H         1.82922   0.371628   -0.995927 H        1 UNL1     0.0348
     72 H         1.708068   1.449666   -3.176569 H        1 UNL1     0.0602
     73 H         -2.564665   4.109538   -3.16322 H        1 UNL1     0.0628
     74 H         0.078141   5.681716   -3.096448 H        1 UNL1     0.1022
     75 H         -0.25057   -1.725984   -12.502525 H        1 UNL1     0.0279
     76 H         1.457115   -1.802072   -12.325543 H        1 UNL1     0.0279
     77 H         0.338466   -2.654008   -11.18619 H        1 UNL1     0.0279
     78 H         -2.03722   -0.99709   -11.155435 H        1 UNL1     0.1553
     79 H         -1.699781   -1.630708   -9.308576 H        1 UNL1     0.1484
     80 H         -3.254255   -1.290037   -5.857917 H        1 UNL1     0.0317
     81 H         -3.950837   -0.54876   -7.291516 H        1 UNL1     0.0317
     82 H         -3.407341   -2.571415   -8.672524 H        1 UNL1     0.0428
     83 H         -4.40608   -2.947591   -7.285904 H        1 UNL1     0.0428
     84 H         -0.247903   -3.770001   -6.916655 H        1 UNL1     0.0428
     85 H         -0.772761   -3.130528   -8.434785 H        1 UNL1     0.0428
     86 H         0.252999   -1.523952   -6.824946 H        1 UNL1     0.0317
     87 H         -0.935568   -1.802197   -5.636569 H        1 UNL1     0.0317
     88 H         -3.349015   -4.950609   -8.242347 H        1 UNL1     0.0429
     89 H         -1.763994   -5.466498   -7.661139 H        1 UNL1     0.0429
     90 H         -3.284385   -6.671021   -6.274846 H        1 UNL1     0.0308
     91 H         -3.341571   -4.38741   -4.350643 H        1 UNL1     0.0233
     92 H         -2.620185   -6.0082   -4.182901 H        1 UNL1     0.0233
     93 H         -1.73479   -4.726954   -4.98233 H        1 UNL1     0.0233
     94 H         -5.030487   -4.26105   -6.57942 H        1 UNL1     0.0233
     95 H         -5.36502   -5.969864   -6.899373 H        1 UNL1     0.0233
     96 H         -5.308938   -5.374117   -5.224282 H        1 UNL1     0.0233
     97 H         -2.410422   7.61285   -9.045767 H        1 UNL1     0.0280
     98 H         -3.669752   7.114826   -10.142693 H        1 UNL1     0.0280
     99 H         -3.977689   7.116783   -8.38062 H        1 UNL1     0.0280
     100 H         -3.955507   4.197129   -11.65863 H        1 UNL1     0.2922
     101 H         3.313584   2.108965   -4.276146 H        1 UNL1     0.0236
     102 H         3.834679   1.238778   -5.771905 H        1 UNL1     0.0236
     103 H         3.815816   0.447918   -4.226046 H        1 UNL1     0.0236
     104 H         1.546601   -1.48323   -2.996257 H        1 UNL1     0.2098
     105 H         -1.112644   0.821501   -1.04783 H        1 UNL1     0.0234
     106 H         -0.388063   -0.758549   -1.459559 H        1 UNL1     0.0234
     107 H         0.0   -0.0   0.0 H        1 UNL1     0.0234
     108 H         1.70516   4.204225   -1.33187 H        1 UNL1     0.2098
     109 H         -2.200366   1.056062   -1.462528 H        1 UNL1     0.0234
     110 H         -3.561324   2.078463   -2.024034 H        1 UNL1     0.0234
     111 H         -1.976413   2.295068   -2.679763 H        1 UNL1     0.0234
     112 H         0.352582   -0.245284   1.236495 H        1 UNL1     0.0342
     113 H         -0.629767   -0.423171   2.733687 H        1 UNL1     0.0342
     114 H         -0.774715   -1.599952   1.425196 H        1 UNL1     0.0342
     115 H         1.665075   4.670088   0.958252 H        1 UNL1     0.0234
     116 H         -0.038196   5.138234   0.936073 H        1 UNL1     0.0234
     117 H         0.714396   4.331236   2.327478 H        1 UNL1     0.0234
     118 H         -3.492024   3.984787   -4.351111 H        1 UNL1     0.0309
     119 H         -3.837224   5.720581   -4.626646 H        1 UNL1     0.0309
     120 H         -4.134606   4.516767   -5.861374 H        1 UNL1     0.0309
     121 H         0.757476   4.124148   0.045086 H        1 UNL1     0.0524
     122 H         0.441253   3.829302   -1.669535 H        1 UNL1     0.0524
     123 H         1.232686   5.344264   -1.167275 H        1 UNL1     0.0524
@<TRIPOS>BOND
     1     1     2    1
     2     1    42    1
     3     2     3    2
     4     3     4    1
     5     4     5    2
     6     5     7    1
     7     6    75    1
     8     6    76    1
     9     6    77    1
    10     7     9   am
    11     9    10    1
    12    10    11    2
    13    10    43    1
    14    11    14    1
    15    11    15    1
    16    12    13   ar
    17    12    27   ar
    18    12    43    1
    19    13    14    1
    20    13    30   ar
    21    14    17    2
    22    15    16    1
    23    16    17    1
    24    16    18    1
    25    16    22    1
    26    18    19    1
    27    19    20    1
    28    20    21    1
    29    21    22    1
    30    23    24    1
    31    23    88    1
    32    23    89    1
    33    24    25    1
    34    24    26    1
    35    24    90    1
    36    25    91    1
    37    25    92    1
    38    25    93    1
    39    26    94    1
    40    26    95    1
    41    26    96    1
    42    27    28   ar
    43    28    29   ar
    44    29    30   ar
    45    29    31    1
    46    30    33    1
    47    31    32    1
    48    32    33    1
    49    32    35    1
    50    34    97    1
    51    34    98    1
    52    34    99    1
    53    35    61    1
    54    36    37    1
    55    36    60    1
    56    37    38    1
    57    38    39    1
    58    39    40    1
    59    40    41    1
    60    41    42    1
    61    45   100    1
    62    47   101    1
    63    47   102    1
    64    47   103    1
    65    48   104    1
    66    49   105    1
    67    49   106    1
    68    49   107    1
    69    50   108    1
    70    51    59    1
    71    52   109    1
    72    52   110    1
    73    52   111    1
    74    53    54    1
    75    54    55    2
    76    54    56    1
    77    56   112    1
    78    56   113    1
    79    56   114    1
    80    57   115    1
    81    57   116    1
    82    57   117    1
    83    58   118    1
    84    58   119    1
    85    58   120    1
    86    59   121    1
    87    59   122    1
    88    59   123    1
    89    60    61    2
    90     1    47    1
    91     1    62    1
    92     2    63    1
    93     3    64    1
    94     4    65    1
    95     5     6    1
    96     7     8    2
    97     9    78    1
    98    15    79    1
    99    18    80    1
   100    18    81    1
   101    19    82    1
   102    19    83    1
   103    20    23    1
   104    21    84    1
   105    21    85    1
   106    22    86    1
   107    22    87    1
   108    27    45    1
   109    28    34    1
   110    32    58    1
   111    33    46    2
   112    36    51    1
   113    36    66    1
   114    37    52    1
   115    37    67    1
   116    38    53    1
   117    38    68    1
   118    42    48    1
   119    42    72    1
   120    43    44    2
   121    60    73    1
   122    61    74    1
   123    39    69    1
   124    39    57    1
   125    40    70    1
   126    40    50    1
   127    41    71    1
   128    41    49    1
