@<TRIPOS>MOLECULE
*****
 123 128 0 0 0
SMALL
GASTEIGER

@<TRIPOS>ATOM
     1 C         4.748959   2.620761   -0.760443 C.3        1 UNL1     0.0009
     2 C         6.208793   2.862483   -1.877355 C.2        1 UNL1     -0.0787
     3 C         7.591921   2.596122   -2.212102 C.2        1 UNL1     -0.0649
     4 C         8.437548   3.07397   -3.5988 C.2        1 UNL1     -0.0542
     5 C         9.567531   2.820065   -4.414735 C.2        1 UNL1     0.0115
     6 C         10.899327   2.025386   -4.504894 C.3        1 UNL1     -0.0348
     7 C         9.593103   3.403925   -5.909875 C.2        1 UNL1     0.2441
     8 O         10.231838   4.39853   -6.225001 O.2        1 UNL1     -0.2702
     9 N         9.046447   2.551154   -6.884606 N.am        1 UNL1     -0.2772
     10 C         7.691455   2.760644   -7.000513 C.2        1 UNL1     0.1049
     11 C         6.928735   2.136848   -6.121106 C.2        1 UNL1     0.0801
     12 C         5.978605   4.564513   -7.26421 C.ar        1 UNL1     0.0753
     13 C         5.291228   3.964768   -6.161292 C.ar        1 UNL1     0.0305
     14 C         5.676944   2.655389   -5.639949 C.2        1 UNL1     0.0924
     15 N         7.235316   1.158684   -5.251778 N.pl3        1 UNL1     -0.3170
     16 C         6.010182   0.710123   -4.64507 C.3        1 UNL1     0.1275
     17 N         5.098786   1.91177   -4.700964 N.2        1 UNL1     -0.2557
     18 C         5.39765   -0.32974   -5.578446 C.3        1 UNL1     0.0016
     19 C         6.419196   -1.430045   -5.81795 C.3        1 UNL1     0.0026
     20 N         6.777666   -2.022478   -4.53672 N.3        1 UNL1     -0.3018
     21 C         7.319256   -1.086893   -3.54893 C.3        1 UNL1     0.0026
     22 C         6.275011   0.007234   -3.320169 C.3        1 UNL1     0.0016
     23 C         7.508868   -3.26617   -4.675349 C.3        1 UNL1     0.0012
     24 C         6.586952   -4.377155   -5.202169 C.3        1 UNL1     -0.0339
     25 C         6.790542   -4.609796   -6.708319 C.3        1 UNL1     -0.0615
     26 C         6.800626   -5.652558   -4.405634 C.3        1 UNL1     -0.0615
     27 C         5.530773   5.754576   -7.832817 C.ar        1 UNL1     0.1347
     28 C         4.389539   6.413645   -7.411793 C.ar        1 UNL1     0.0342
     29 C         3.756754   5.830948   -6.293217 C.ar        1 UNL1     0.1435
     30 C         4.21458   4.658705   -5.69034 C.ar        1 UNL1     0.0774
     31 O         2.573243   6.2923   -5.833366 O.3        1 UNL1     -0.4436
     32 C         2.040905   5.211095   -5.053311 C.3        1 UNL1     0.3143
     33 C         3.244301   4.38244   -4.651589 C.2        1 UNL1     0.2504
     34 C         3.711308   7.547878   -8.128466 C.3        1 UNL1     -0.0327
     35 O         1.504028   5.777028   -3.851339 O.2        1 UNL1     -0.4528
     36 C         -1.361279   3.509716   -2.82304 C.3        1 UNL1     0.0854
     37 C         -1.347923   1.961722   -2.521279 C.3        1 UNL1     0.0236
     38 C         -1.925907   1.548387   -1.083631 C.3        1 UNL1     0.1131
     39 C         -1.388069   2.271628   0.216339 C.3        1 UNL1     0.0200
     40 C         0.243949   2.556565   0.410678 C.3        1 UNL1     0.0661
     41 C         1.482482   1.414345   0.213244 C.3        1 UNL1     0.0091
     42 C         3.208144   1.61976   -0.374377 C.3        1 UNL1     0.0661
     43 C         7.132614   3.830596   -7.840307 C.2        1 UNL1     0.2131
     44 O         7.545382   4.007186   -8.972198 O.2        1 UNL1     -0.2851
     45 O         6.283137   6.295567   -8.873354 O.3        1 UNL1     -0.5056
     46 O         3.379689   3.671738   -3.680803 O.2        1 UNL1     -0.2836
     47 C         4.928473   3.439215   0.546419 C.3        1 UNL1     -0.0566
     48 O         3.79945   0.827043   0.730645 O.3        1 UNL1     -0.3909
     49 C         0.918623   0.19971   -0.489763 C.3        1 UNL1     -0.0577
     50 O         0.614376   3.780032   -0.192342 O.3        1 UNL1     -0.3910
     51 O         -1.710103   4.345047   -1.742311 O.3        1 UNL1     -0.3753
     52 C         -0.101671   1.257111   -3.150031 C.3        1 UNL1     -0.0564
     53 O         -2.228794   0.084001   -0.95651 O.3        1 UNL1     -0.4608
     54 C         -2.329685   -0.607687   0.222184 C.2        1 UNL1     0.3042
     55 O         -1.561312   -1.467224   0.651878 O.2        1 UNL1     -0.2512
     56 C         -3.49824   -0.187857   1.067723 C.3        1 UNL1     0.0332
     57 C         -2.398603   3.463288   0.558309 C.3        1 UNL1     -0.0567
     58 C         1.156814   4.376255   -6.008798 C.3        1 UNL1     0.0210
     59 C         -2.289398   5.595029   -2.113563 C.3        1 UNL1     0.0372
     60 C         -0.096986   4.050275   -3.392707 C.2        1 UNL1     -0.0208
     61 C         0.586288   5.154174   -3.087276 C.2        1 UNL1     0.0882
     62 H         4.151371   3.241523   -1.438864 H        1 UNL1     0.0365
     63 H         5.80441   3.587342   -2.586949 H        1 UNL1     0.0576
     64 H         8.193669   1.888012   -1.638006 H        1 UNL1     0.0615
     65 H         7.790572   3.830708   -4.050743 H        1 UNL1     0.0622
     66 H         -2.121493   3.63147   -3.607449 H        1 UNL1     0.0645
     67 H         -2.119997   1.550646   -3.194686 H        1 UNL1     0.0362
     68 H         -2.965957   1.889925   -1.198386 H        1 UNL1     0.0741
     69 H         -1.626551   1.662003   1.077671 H        1 UNL1     0.0359
     70 H         0.273235   2.76384   1.497527 H        1 UNL1     0.0600
     71 H         1.569835   1.0423   1.252912 H        1 UNL1     0.0348
     72 H         2.870447   2.620892   -0.069398 H        1 UNL1     0.0602
     73 H         0.181063   3.47091   -4.237854 H        1 UNL1     0.0628
     74 H         0.401839   5.769539   -2.20606 H        1 UNL1     0.1022
     75 H         11.032985   1.380714   -3.602914 H        1 UNL1     0.0279
     76 H         10.982704   1.309134   -5.319203 H        1 UNL1     0.0279
     77 H         11.786077   2.672996   -4.441837 H        1 UNL1     0.0279
     78 H         9.183858   1.581625   -6.606742 H        1 UNL1     0.1553
     79 H         8.046914   0.574367   -5.334336 H        1 UNL1     0.1484
     80 H         4.482528   -0.725383   -5.121515 H        1 UNL1     0.0317
     81 H         5.101679   0.124664   -6.53006 H        1 UNL1     0.0317
     82 H         7.309299   -1.052118   -6.342166 H        1 UNL1     0.0428
     83 H         5.962559   -2.159789   -6.487282 H        1 UNL1     0.0428
     84 H         7.505314   -1.54093   -2.570643 H        1 UNL1     0.0428
     85 H         8.299959   -0.69484   -3.851968 H        1 UNL1     0.0428
     86 H         6.645781   0.594569   -2.500684 H        1 UNL1     0.0317
     87 H         5.352987   -0.432425   -2.920586 H        1 UNL1     0.0317
     88 H         8.316518   -3.108338   -5.402044 H        1 UNL1     0.0429
     89 H         7.980772   -3.558957   -3.728589 H        1 UNL1     0.0429
     90 H         5.542998   -4.088704   -5.031376 H        1 UNL1     0.0308
     91 H         7.831503   -4.858888   -6.935154 H        1 UNL1     0.0233
     92 H         6.143229   -5.413969   -7.06595 H        1 UNL1     0.0233
     93 H         6.537707   -3.725292   -7.305447 H        1 UNL1     0.0233
     94 H         6.333484   -6.500573   -4.917967 H        1 UNL1     0.0233
     95 H         7.870228   -5.861383   -4.314491 H        1 UNL1     0.0233
     96 H         6.369636   -5.57416   -3.403601 H        1 UNL1     0.0233
     97 H         2.779282   7.833116   -7.64972 H        1 UNL1     0.0280
     98 H         4.329738   8.454782   -8.146516 H        1 UNL1     0.0280
     99 H         3.489469   7.248812   -9.165983 H        1 UNL1     0.0280
     100 H         5.789571   6.500481   -9.647967 H        1 UNL1     0.2922
     101 H         4.00508   3.415697   1.124733 H        1 UNL1     0.0236
     102 H         5.275107   4.457009   0.370572 H        1 UNL1     0.0236
     103 H         5.687114   2.995081   1.212304 H        1 UNL1     0.0236
     104 H         3.978134   1.439922   1.470524 H        1 UNL1     0.2098
     105 H         0.707072   0.349728   -1.545487 H        1 UNL1     0.0234
     106 H         1.491132   -0.716476   -0.345672 H        1 UNL1     0.0234
     107 H         0.0   -0.0   0.0 H        1 UNL1     0.0234
     108 H         0.526838   3.665589   -1.158266 H        1 UNL1     0.2098
     109 H         0.844196   1.677496   -2.78081 H        1 UNL1     0.0234
     110 H         -0.101848   0.171538   -3.004177 H        1 UNL1     0.0234
     111 H         -0.075345   1.379112   -4.241072 H        1 UNL1     0.0234
     112 H         -3.508607   -0.761555   1.999446 H        1 UNL1     0.0342
     113 H         -3.495261   0.882531   1.267982 H        1 UNL1     0.0342
     114 H         -4.42067   -0.421143   0.5183 H        1 UNL1     0.0342
     115 H         -3.438236   3.11281   0.617599 H        1 UNL1     0.0234
     116 H         -2.173279   3.982248   1.492096 H        1 UNL1     0.0234
     117 H         -2.473962   4.219481   -0.241962 H        1 UNL1     0.0234
     118 H         0.143352   4.801573   -6.113705 H        1 UNL1     0.0309
     119 H         1.597554   4.251527   -7.002978 H        1 UNL1     0.0309
     120 H         0.968577   3.365147   -5.631528 H        1 UNL1     0.0309
     121 H         -1.533929   6.159286   -2.659675 H        1 UNL1     0.0524
     122 H         -3.15849   5.471581   -2.781004 H        1 UNL1     0.0524
     123 H         -2.599622   6.143164   -1.228462 H        1 UNL1     0.0524
@<TRIPOS>BOND
     1     1     2    1
     2     1    42    1
     3     2     3    2
     4     3     4    1
     5     4     5    2
     6     5     7    1
     7     6    75    1
     8     6    76    1
     9     6    77    1
    10     7     9   am
    11     9    10    1
    12    10    11    2
    13    10    43    1
    14    11    14    1
    15    11    15    1
    16    12    13   ar
    17    12    27   ar
    18    12    43    1
    19    13    14    1
    20    13    30   ar
    21    14    17    2
    22    15    16    1
    23    16    17    1
    24    16    18    1
    25    16    22    1
    26    18    19    1
    27    19    20    1
    28    20    21    1
    29    21    22    1
    30    23    24    1
    31    23    88    1
    32    23    89    1
    33    24    25    1
    34    24    26    1
    35    24    90    1
    36    25    91    1
    37    25    92    1
    38    25    93    1
    39    26    94    1
    40    26    95    1
    41    26    96    1
    42    27    28   ar
    43    28    29   ar
    44    29    30   ar
    45    29    31    1
    46    30    33    1
    47    31    32    1
    48    32    33    1
    49    32    35    1
    50    34    97    1
    51    34    98    1
    52    34    99    1
    53    35    61    1
    54    36    37    1
    55    36    60    1
    56    37    38    1
    57    38    39    1
    58    39    40    1
    59    40    41    1
    60    41    42    1
    61    45   100    1
    62    47   101    1
    63    47   102    1
    64    47   103    1
    65    48   104    1
    66    49   105    1
    67    49   106    1
    68    49   107    1
    69    50   108    1
    70    51    59    1
    71    52   109    1
    72    52   110    1
    73    52   111    1
    74    53    54    1
    75    54    55    2
    76    54    56    1
    77    56   112    1
    78    56   113    1
    79    56   114    1
    80    57   115    1
    81    57   116    1
    82    57   117    1
    83    58   118    1
    84    58   119    1
    85    58   120    1
    86    59   121    1
    87    59   122    1
    88    59   123    1
    89    60    61    2
    90     1    47    1
    91     1    62    1
    92     2    63    1
    93     3    64    1
    94     4    65    1
    95     5     6    1
    96     7     8    2
    97     9    78    1
    98    15    79    1
    99    18    80    1
   100    18    81    1
   101    19    82    1
   102    19    83    1
   103    20    23    1
   104    21    84    1
   105    21    85    1
   106    22    86    1
   107    22    87    1
   108    27    45    1
   109    28    34    1
   110    32    58    1
   111    33    46    2
   112    36    51    1
   113    36    66    1
   114    37    52    1
   115    37    67    1
   116    38    53    1
   117    38    68    1
   118    42    48    1
   119    42    72    1
   120    43    44    2
   121    60    73    1
   122    61    74    1
   123    39    69    1
   124    39    57    1
   125    40    70    1
   126    40    50    1
   127    41    71    1
   128    41    49    1
