@<TRIPOS>MOLECULE
*****
 123 128 0 0 0
SMALL
GASTEIGER

@<TRIPOS>ATOM
     1 C         5.166516   1.759908   0.457281 C.3        1 UNL1     0.0009
     2 C         6.595963   2.568759   -0.402648 C.2        1 UNL1     -0.0787
     3 C         7.873716   2.473054   -1.076617 C.2        1 UNL1     -0.0649
     4 C         8.743639   3.709768   -1.83828 C.2        1 UNL1     -0.0542
     5 C         9.756953   4.004243   -2.783562 C.2        1 UNL1     0.0115
     6 C         10.880855   3.380885   -3.656255 C.3        1 UNL1     -0.0348
     7 C         9.845222   5.487484   -3.391174 C.2        1 UNL1     0.2441
     8 O         10.669786   6.311008   -3.019114 O.2        1 UNL1     -0.2702
     9 N         9.08701   5.692448   -4.557045 N.am        1 UNL1     -0.2772
     10 C         7.805533   6.076522   -4.235134 C.2        1 UNL1     0.1049
     11 C         6.963715   5.103422   -3.937408 C.2        1 UNL1     0.0801
     12 C         6.512885   7.680916   -2.816574 C.ar        1 UNL1     0.0753
     13 C         5.75913   6.551554   -2.363804 C.ar        1 UNL1     0.0305
     14 C         5.874655   5.245876   -3.00949 C.2        1 UNL1     0.0924
     15 N         7.088122   3.774651   -4.096835 N.pl3        1 UNL1     -0.3170
     16 C         5.821594   3.172903   -3.774251 C.3        1 UNL1     0.1275
     17 N         5.189518   4.127133   -2.79056 N.2        1 UNL1     -0.2557
     18 C         4.96047   3.22972   -5.0324 C.3        1 UNL1     0.0016
     19 C         5.709487   2.54683   -6.165637 C.3        1 UNL1     0.0026
     20 N         5.98504   1.16944   -5.781065 N.3        1 UNL1     -0.3018
     21 C         6.756732   1.011102   -4.546646 C.3        1 UNL1     0.0026
     22 C         5.983788   1.700366   -3.420873 C.3        1 UNL1     0.0016
     23 C         6.424099   0.350454   -6.893329 C.3        1 UNL1     0.0012
     24 C         5.26286   0.098184   -7.867823 C.3        1 UNL1     -0.0339
     25 C         5.348097   1.02055   -9.095029 C.3        1 UNL1     -0.0615
     26 C         5.229426   -1.365963   -8.270235 C.3        1 UNL1     -0.0615
     27 C         6.30903   8.948365   -2.276078 C.ar        1 UNL1     0.1347
     28 C         5.35563   9.216221   -1.309987 C.ar        1 UNL1     0.0342
     29 C         4.659468   8.080451   -0.84464 C.ar        1 UNL1     0.1435
     30 C         4.878356   6.798712   -1.351053 C.ar        1 UNL1     0.0774
     31 O         3.62378   8.192116   0.015527 O.3        1 UNL1     -0.4436
     32 C         2.903813   6.957719   -0.12154 C.3        1 UNL1     0.3143
     33 C         3.915751   5.966573   -0.659893 C.2        1 UNL1     0.2504
     34 C         4.908756   10.581533   -0.866898 C.3        1 UNL1     -0.0327
     35 O         2.552627   6.520727   1.197156 O.2        1 UNL1     -0.4528
     36 C         -0.688814   4.581534   0.822085 C.3        1 UNL1     0.0854
     37 C         -0.997247   3.319984   -0.072836 C.3        1 UNL1     0.0236
     38 C         -1.590015   2.057954   0.719409 C.3        1 UNL1     0.1131
     39 C         -0.854725   1.529027   2.016272 C.3        1 UNL1     0.0200
     40 C         0.807004   1.387016   2.046735 C.3        1 UNL1     0.0661
     41 C         1.760415   0.619797   0.872004 C.3        1 UNL1     0.0091
     42 C         3.463542   0.985765   0.29683 C.3        1 UNL1     0.0661
     43 C         7.456089   7.474821   -3.943584 C.2        1 UNL1     0.2131
     44 O         7.849407   8.373483   -4.665002 O.2        1 UNL1     -0.2851
     45 O         7.116116   9.985024   -2.740179 O.3        1 UNL1     -0.5056
     46 O         3.935137   4.763123   -0.528801 O.2        1 UNL1     -0.2836
     47 C         5.573092   1.331795   1.893038 C.3        1 UNL1     -0.0566
     48 O         3.915616   -0.424357   0.376205 O.3        1 UNL1     -0.3909
     49 C         0.91871   0.384988   -0.362457 C.3        1 UNL1     -0.0577
     50 O         1.407151   2.606289   2.435216 O.3        1 UNL1     -0.3910
     51 O         -0.803487   4.392107   2.214348 O.3        1 UNL1     -0.3753
     52 C         0.04006   3.161301   -1.232044 C.3        1 UNL1     -0.0564
     53 O         -2.196231   1.017367   -0.176141 O.3        1 UNL1     -0.4608
     54 C         -2.394519   -0.29783   0.153812 C.2        1 UNL1     0.3042
     55 O         -1.812452   -1.279256   -0.306448 O.2        1 UNL1     -0.2512
     56 C         -3.408406   -0.498076   1.244062 C.3        1 UNL1     0.0332
     57 C         -1.568984   2.196958   3.281924 C.3        1 UNL1     -0.0567
     58 C         1.821101   7.200135   -1.198804 C.3        1 UNL1     0.0210
     59 C         -1.11438   5.57072   2.956024 C.3        1 UNL1     0.0372
     60 C         0.637325   5.213343   0.582639 C.2        1 UNL1     -0.0208
     61 C         1.554949   5.650828   1.445957 C.2        1 UNL1     0.0882
     62 H         4.689089   2.743104   0.547279 H        1 UNL1     0.0365
     63 H         6.328173   3.622032   -0.295997 H        1 UNL1     0.0576
     64 H         8.331975   1.507092   -1.30028 H        1 UNL1     0.0615
     65 H         8.256877   4.624261   -1.488639 H        1 UNL1     0.0622
     66 H         -1.437038   5.32637   0.516427 H        1 UNL1     0.0645
     67 H         -1.867392   3.627291   -0.678617 H        1 UNL1     0.0362
     68 H         -2.535709   2.492958   1.07712 H        1 UNL1     0.0741
     69 H         -1.182833   0.517303   2.214181 H        1 UNL1     0.0359
     70 H         0.925886   0.727251   2.927439 H        1 UNL1     0.0600
     71 H         1.808925   -0.401115   1.299021 H        1 UNL1     0.0348
     72 H         3.36298   1.474112   1.276994 H        1 UNL1     0.0602
     73 H         0.748081   5.410454   -0.454727 H        1 UNL1     0.0628
     74 H         1.544785   5.440528   2.51596 H        1 UNL1     0.1022
     75 H         10.90992   2.272322   -3.524815 H        1 UNL1     0.0279
     76 H         10.773451   3.486325   -4.733481 H        1 UNL1     0.0279
     77 H         11.888328   3.665653   -3.319201 H        1 UNL1     0.0279
     78 H         9.023449   4.822174   -5.081124 H        1 UNL1     0.1553
     79 H         7.750279   3.347835   -4.718373 H        1 UNL1     0.1484
     80 H         4.001508   2.736829   -4.831858 H        1 UNL1     0.0317
     81 H         4.729916   4.26589   -5.302304 H        1 UNL1     0.0317
     82 H         6.637396   3.080005   -6.419845 H        1 UNL1     0.0428
     83 H         5.07845   2.600317   -7.05332 H        1 UNL1     0.0428
     84 H         6.881261   -0.031477   -4.237885 H        1 UNL1     0.0428
     85 H         7.785349   1.381271   -4.657276 H        1 UNL1     0.0428
     86 H         6.506617   1.451438   -2.516067 H        1 UNL1     0.0317
     87 H         5.006188   1.220708   -3.28926 H        1 UNL1     0.0317
     88 H         7.215578   0.893733   -7.425967 H        1 UNL1     0.0429
     89 H         6.860961   -0.59427   -6.544871 H        1 UNL1     0.0429
     90 H         4.313874   0.289013   -7.352825 H        1 UNL1     0.0308
     91 H         6.30031   0.89751   -9.619676 H        1 UNL1     0.0233
     92 H         4.528058   0.818259   -9.788009 H        1 UNL1     0.0233
     93 H         5.267321   2.080933   -8.826892 H        1 UNL1     0.0233
     94 H         4.547505   -1.509938   -9.115275 H        1 UNL1     0.0233
     95 H         6.226057   -1.690564   -8.582202 H        1 UNL1     0.0233
     96 H         4.894419   -1.999329   -7.444047 H        1 UNL1     0.0233
     97 H         4.114001   10.530476   -0.128665 H        1 UNL1     0.0280
     98 H         5.720961   11.149986   -0.395263 H        1 UNL1     0.0280
     99 H         4.537042   11.14834   -1.736182 H        1 UNL1     0.0280
     100 H         6.645643   10.739201   -3.049201 H        1 UNL1     0.2922
     101 H         4.711354   0.907936   2.408214 H        1 UNL1     0.0236
     102 H         6.036987   2.134954   2.464632 H        1 UNL1     0.0236
     103 H         6.321857   0.522158   1.887367 H        1 UNL1     0.0236
     104 H         4.33571   -0.55071   1.249432 H        1 UNL1     0.2098
     105 H         0.700446   1.283148   -0.934716 H        1 UNL1     0.0234
     106 H         1.285504   -0.402502   -1.020674 H        1 UNL1     0.0234
     107 H         0.0   -0.0   0.0 H        1 UNL1     0.0234
     108 H         1.217692   3.259218   1.734105 H        1 UNL1     0.2098
     109 H         1.068997   3.062534   -0.858889 H        1 UNL1     0.0234
     110 H         -0.188305   2.325855   -1.902583 H        1 UNL1     0.0234
     111 H         0.046323   4.038657   -1.892464 H        1 UNL1     0.0234
     112 H         -3.503276   -1.563907   1.472865 H        1 UNL1     0.0342
     113 H         -3.166072   0.073526   2.138707 H        1 UNL1     0.0342
     114 H         -4.381654   -0.144568   0.876658 H        1 UNL1     0.0342
     115 H         -2.640407   1.956596   3.32023 H        1 UNL1     0.0234
     116 H         -1.133373   1.908972   4.240755 H        1 UNL1     0.0234
     117 H         -1.599296   3.29931   3.238995 H        1 UNL1     0.0234
     118 H         0.919841   7.681056   -0.779937 H        1 UNL1     0.0309
     119 H         2.182446   7.792464   -2.045432 H        1 UNL1     0.0309
     120 H         1.435055   6.267314   -1.62415 H        1 UNL1     0.0309
     121 H         -0.278511   6.260759   2.844107 H        1 UNL1     0.0524
     122 H         -2.016837   6.078094   2.576312 H        1 UNL1     0.0524
     123 H         -1.261589   5.327169   4.004407 H        1 UNL1     0.0524
@<TRIPOS>BOND
     1     1     2    1
     2     1    42    1
     3     2     3    2
     4     3     4    1
     5     4     5    2
     6     5     7    1
     7     6    75    1
     8     6    76    1
     9     6    77    1
    10     7     9   am
    11     9    10    1
    12    10    11    2
    13    10    43    1
    14    11    14    1
    15    11    15    1
    16    12    13   ar
    17    12    27   ar
    18    12    43    1
    19    13    14    1
    20    13    30   ar
    21    14    17    2
    22    15    16    1
    23    16    17    1
    24    16    18    1
    25    16    22    1
    26    18    19    1
    27    19    20    1
    28    20    21    1
    29    21    22    1
    30    23    24    1
    31    23    88    1
    32    23    89    1
    33    24    25    1
    34    24    26    1
    35    24    90    1
    36    25    91    1
    37    25    92    1
    38    25    93    1
    39    26    94    1
    40    26    95    1
    41    26    96    1
    42    27    28   ar
    43    28    29   ar
    44    29    30   ar
    45    29    31    1
    46    30    33    1
    47    31    32    1
    48    32    33    1
    49    32    35    1
    50    34    97    1
    51    34    98    1
    52    34    99    1
    53    35    61    1
    54    36    37    1
    55    36    60    1
    56    37    38    1
    57    38    39    1
    58    39    40    1
    59    40    41    1
    60    41    42    1
    61    45   100    1
    62    47   101    1
    63    47   102    1
    64    47   103    1
    65    48   104    1
    66    49   105    1
    67    49   106    1
    68    49   107    1
    69    50   108    1
    70    51    59    1
    71    52   109    1
    72    52   110    1
    73    52   111    1
    74    53    54    1
    75    54    55    2
    76    54    56    1
    77    56   112    1
    78    56   113    1
    79    56   114    1
    80    57   115    1
    81    57   116    1
    82    57   117    1
    83    58   118    1
    84    58   119    1
    85    58   120    1
    86    59   121    1
    87    59   122    1
    88    59   123    1
    89    60    61    2
    90     1    47    1
    91     1    62    1
    92     2    63    1
    93     3    64    1
    94     4    65    1
    95     5     6    1
    96     7     8    2
    97     9    78    1
    98    15    79    1
    99    18    80    1
   100    18    81    1
   101    19    82    1
   102    19    83    1
   103    20    23    1
   104    21    84    1
   105    21    85    1
   106    22    86    1
   107    22    87    1
   108    27    45    1
   109    28    34    1
   110    32    58    1
   111    33    46    2
   112    36    51    1
   113    36    66    1
   114    37    52    1
   115    37    67    1
   116    38    53    1
   117    38    68    1
   118    42    48    1
   119    42    72    1
   120    43    44    2
   121    60    73    1
   122    61    74    1
   123    39    69    1
   124    39    57    1
   125    40    70    1
   126    40    50    1
   127    41    71    1
   128    41    49    1
