@<TRIPOS>MOLECULE
*****
 123 128 0 0 0
SMALL
GASTEIGER

@<TRIPOS>ATOM
     1 C         1.777733   -1.728076   -4.883922 C.3        1 UNL1     0.0009
     2 C         1.859318   -1.375326   -6.702148 C.2        1 UNL1     -0.0787
     3 C         1.380729   -1.605521   -8.049 C.2        1 UNL1     -0.0649
     4 C         1.831309   -0.795968   -9.466024 C.2        1 UNL1     -0.0542
     5 C         1.45816   -0.492815   -10.798667 C.2        1 UNL1     0.0115
     6 C         0.447874   -0.83231   -11.928883 C.3        1 UNL1     -0.0348
     7 C         2.17189   0.736378   -11.544764 C.2        1 UNL1     0.2441
     8 O         3.060226   0.58718   -12.372487 O.2        1 UNL1     -0.2702
     9 N         1.532515   1.97732   -11.379191 N.am        1 UNL1     -0.2772
     10 C         1.994684   2.608382   -10.247165 C.2        1 UNL1     0.1049
     11 C         1.436158   2.242485   -9.107696 C.2        1 UNL1     0.0801
     12 C         4.096369   3.25412   -9.054154 C.ar        1 UNL1     0.0753
     13 C         3.525725   2.653036   -7.887247 C.ar        1 UNL1     0.0305
     14 C         2.123275   2.245148   -7.844668 C.2        1 UNL1     0.0924
     15 N         0.33792   1.500946   -8.882932 N.pl3        1 UNL1     -0.3170
     16 C         0.061563   1.541618   -7.47147 C.3        1 UNL1     0.1275
     17 N         1.408168   1.769361   -6.8292 N.2        1 UNL1     -0.2557
     18 C         -0.752997   2.804129   -7.206404 C.3        1 UNL1     0.0016
     19 C         -1.991363   2.777962   -8.088081 C.3        1 UNL1     0.0026
     20 N         -2.762103   1.58213   -7.776674 N.3        1 UNL1     -0.3018
     21 C         -2.042062   0.317793   -7.942087 C.3        1 UNL1     0.0026
     22 C         -0.804565   0.364021   -7.044111 C.3        1 UNL1     0.0016
     23 C         -4.098027   1.610164   -8.338069 C.3        1 UNL1     0.0012
     24 C         -4.96605   2.649328   -7.611136 C.3        1 UNL1     -0.0339
     25 C         -4.997405   3.985951   -8.37042 C.3        1 UNL1     -0.0615
     26 C         -6.364201   2.098132   -7.391738 C.3        1 UNL1     -0.0615
     27 C         5.397987   3.749966   -9.047492 C.ar        1 UNL1     0.1347
     28 C         6.208469   3.737081   -7.92633 C.ar        1 UNL1     0.0342
     29 C         5.643063   3.096492   -6.803332 C.ar        1 UNL1     0.1435
     30 C         4.353697   2.562873   -6.806114 C.ar        1 UNL1     0.0774
     31 O         6.263931   3.099415   -5.603532 O.3        1 UNL1     -0.4436
     32 C         5.225825   2.803083   -4.657278 C.3        1 UNL1     0.3143
     33 C         4.157199   2.082617   -5.45426 C.2        1 UNL1     0.2504
     34 C         7.511816   4.470291   -7.772088 C.3        1 UNL1     -0.0327
     35 O         5.758728   1.856451   -3.72285 O.2        1 UNL1     -0.4528
     36 C         3.958807   2.504231   -0.444321 C.3        1 UNL1     0.0854
     37 C         2.412022   2.487084   -0.136612 C.3        1 UNL1     0.0236
     38 C         1.971005   1.510121   1.056196 C.3        1 UNL1     0.1131
     39 C         2.453244   0.003564   1.05613 C.3        1 UNL1     0.0200
     40 C         2.416895   -0.895115   -0.34868 C.3        1 UNL1     0.0661
     41 C         1.094018   -1.04197   -1.400365 C.3        1 UNL1     0.0091
     42 C         1.039792   -1.266875   -3.220222 C.3        1 UNL1     0.0661
     43 C         3.225588   3.412886   -10.245284 C.2        1 UNL1     0.2131
     44 O         3.434846   4.224455   -11.128633 O.2        1 UNL1     -0.2851
     45 O         5.893218   4.27809   -10.237984 O.3        1 UNL1     -0.5056
     46 O         3.341739   1.276757   -5.065071 O.2        1 UNL1     -0.2836
     47 C         2.417456   -3.107972   -4.573078 C.3        1 UNL1     -0.0566
     48 O         0.048177   -2.368324   -3.168971 O.3        1 UNL1     -0.3909
     49 C         0.076958   0.023464   -1.056952 C.3        1 UNL1     -0.0577
     50 O         3.606157   -0.713658   -1.090606 O.3        1 UNL1     -0.3910
     51 O         4.733125   1.54304   0.236836 O.3        1 UNL1     -0.3753
     52 C         1.558363   2.649772   -1.436516 C.3        1 UNL1     -0.0564
     53 O         0.580572   1.766467   1.559494 O.3        1 UNL1     -0.4608
     54 C         -0.181026   0.881625   2.277098 C.2        1 UNL1     0.3042
     55 O         -1.204001   0.306146   1.90807 O.2        1 UNL1     -0.2512
     56 C         0.374534   0.576631   3.639098 C.3        1 UNL1     0.0332
     57 C         3.768923   -0.081724   1.961609 C.3        1 UNL1     -0.0567
     58 C         4.66331   4.163864   -4.184646 C.3        1 UNL1     0.0210
     59 C         6.097805   1.906939   0.439547 C.3        1 UNL1     0.0372
     60 C         4.314435   2.398827   -1.885702 C.2        1 UNL1     -0.0208
     61 C         5.24059   1.657894   -2.495619 C.2        1 UNL1     0.0882
     62 H         2.560269   -0.976873   -4.722544 H        1 UNL1     0.0365
     63 H         2.711731   -0.693795   -6.739263 H        1 UNL1     0.0576
     64 H         0.522232   -2.250571   -8.249004 H        1 UNL1     0.0615
     65 H         2.733575   -0.249513   -9.178299 H        1 UNL1     0.0622
     66 H         4.292999   3.500981   -0.123619 H        1 UNL1     0.0645
     67 H         2.216083   3.478384   0.307791 H        1 UNL1     0.0362
     68 H         2.505139   1.987413   1.891908 H        1 UNL1     0.0741
     69 H         1.81527   -0.566102   1.718609 H        1 UNL1     0.0359
     70 H         2.507486   -1.91391   0.074297 H        1 UNL1     0.0600
     71 H         0.611863   -1.946006   -0.979409 H        1 UNL1     0.0348
     72 H         2.050633   -1.566531   -2.907617 H        1 UNL1     0.0602
     73 H         3.780239   3.135982   -2.43204 H        1 UNL1     0.0628
     74 H         5.789486   0.843627   -2.021362 H        1 UNL1     0.1022
     75 H         -0.278425   -1.607945   -11.585496 H        1 UNL1     0.0279
     76 H         -0.206264   -0.026071   -12.253154 H        1 UNL1     0.0279
     77 H         0.919825   -1.340131   -12.782745 H        1 UNL1     0.0279
     78 H         0.531593   1.833543   -11.262742 H        1 UNL1     0.1553
     79 H         -0.372918   1.335447   -9.571593 H        1 UNL1     0.1484
     80 H         -1.019076   2.841269   -6.143112 H        1 UNL1     0.0317
     81 H         -0.161077   3.702251   -7.412944 H        1 UNL1     0.0317
     82 H         -1.731462   2.81434   -9.156276 H        1 UNL1     0.0428
     83 H         -2.556731   3.687873   -7.884437 H        1 UNL1     0.0428
     84 H         -2.616309   -0.558629   -7.62596 H        1 UNL1     0.0428
     85 H         -1.80653   0.116396   -8.99626 H        1 UNL1     0.0428
     86 H         -0.377737   -0.620786   -7.08839 H        1 UNL1     0.0317
     87 H         -1.10682   0.46266   -5.994345 H        1 UNL1     0.0317
     88 H         -4.01861   1.898579   -9.394386 H        1 UNL1     0.0429
     89 H         -4.563245   0.616401   -8.310122 H        1 UNL1     0.0429
     90 H         -4.553198   2.825599   -6.610789 H        1 UNL1     0.0308
     91 H         -5.362918   3.853895   -9.393192 H        1 UNL1     0.0233
     92 H         -5.63228   4.709199   -7.853259 H        1 UNL1     0.0233
     93 H         -4.005342   4.44768   -8.444261 H        1 UNL1     0.0233
     94 H         -7.035062   2.89445   -7.051649 H        1 UNL1     0.0233
     95 H         -6.760854   1.701118   -8.330358 H        1 UNL1     0.0233
     96 H         -6.366022   1.301347   -6.642673 H        1 UNL1     0.0233
     97 H         7.937329   4.340935   -6.781414 H        1 UNL1     0.0280
     98 H         8.27425   4.111552   -8.475833 H        1 UNL1     0.0280
     99 H         7.351434   5.547666   -7.941308 H        1 UNL1     0.0280
     100 H         6.231066   5.153581   -10.167299 H        1 UNL1     0.2922
     101 H         2.402659   -3.286299   -3.498073 H        1 UNL1     0.0236
     102 H         3.416405   -3.221642   -4.992797 H        1 UNL1     0.0236
     103 H         1.835661   -3.940421   -5.002886 H        1 UNL1     0.0236
     104 H         0.542784   -3.211098   -3.177036 H        1 UNL1     0.2098
     105 H         0.36597   1.03045   -1.347229 H        1 UNL1     0.0234
     106 H         -0.937534   -0.190145   -1.393261 H        1 UNL1     0.0234
     107 H         -0.0   0.0   0.0 H        1 UNL1     0.0234
     108 H         3.635322   0.222401   -1.367573 H        1 UNL1     0.2098
     109 H         1.752749   1.849925   -2.164644 H        1 UNL1     0.0234
     110 H         0.482668   2.712819   -1.239922 H        1 UNL1     0.0234
     111 H         1.789231   3.588518   -1.957478 H        1 UNL1     0.0234
     112 H         -0.273607   -0.139265   4.153639 H        1 UNL1     0.0342
     113 H         1.399321   0.211467   3.591024 H        1 UNL1     0.0342
     114 H         0.379722   1.506877   4.223717 H        1 UNL1     0.0342
     115 H         3.578648   0.252169   2.990928 H        1 UNL1     0.0234
     116 H         4.206432   -1.080562   2.015992 H        1 UNL1     0.0234
     117 H         4.561825   0.621027   1.652758 H        1 UNL1     0.0234
     118 H         5.276261   4.609541   -3.381733 H        1 UNL1     0.0309
     119 H         4.554806   4.889425   -4.997044 H        1 UNL1     0.0309
     120 H         3.672975   4.07264   -3.725275 H        1 UNL1     0.0309
     121 H         6.556873   2.024651   -0.541655 H        1 UNL1     0.0524
     122 H         6.200083   2.86757   0.971304 H        1 UNL1     0.0524
     123 H         6.612792   1.134845   1.004128 H        1 UNL1     0.0524
@<TRIPOS>BOND
     1     1     2    1
     2     1    42    1
     3     2     3    2
     4     3     4    1
     5     4     5    2
     6     5     7    1
     7     6    75    1
     8     6    76    1
     9     6    77    1
    10     7     9   am
    11     9    10    1
    12    10    11    2
    13    10    43    1
    14    11    14    1
    15    11    15    1
    16    12    13   ar
    17    12    27   ar
    18    12    43    1
    19    13    14    1
    20    13    30   ar
    21    14    17    2
    22    15    16    1
    23    16    17    1
    24    16    18    1
    25    16    22    1
    26    18    19    1
    27    19    20    1
    28    20    21    1
    29    21    22    1
    30    23    24    1
    31    23    88    1
    32    23    89    1
    33    24    25    1
    34    24    26    1
    35    24    90    1
    36    25    91    1
    37    25    92    1
    38    25    93    1
    39    26    94    1
    40    26    95    1
    41    26    96    1
    42    27    28   ar
    43    28    29   ar
    44    29    30   ar
    45    29    31    1
    46    30    33    1
    47    31    32    1
    48    32    33    1
    49    32    35    1
    50    34    97    1
    51    34    98    1
    52    34    99    1
    53    35    61    1
    54    36    37    1
    55    36    60    1
    56    37    38    1
    57    38    39    1
    58    39    40    1
    59    40    41    1
    60    41    42    1
    61    45   100    1
    62    47   101    1
    63    47   102    1
    64    47   103    1
    65    48   104    1
    66    49   105    1
    67    49   106    1
    68    49   107    1
    69    50   108    1
    70    51    59    1
    71    52   109    1
    72    52   110    1
    73    52   111    1
    74    53    54    1
    75    54    55    2
    76    54    56    1
    77    56   112    1
    78    56   113    1
    79    56   114    1
    80    57   115    1
    81    57   116    1
    82    57   117    1
    83    58   118    1
    84    58   119    1
    85    58   120    1
    86    59   121    1
    87    59   122    1
    88    59   123    1
    89    60    61    2
    90     1    47    1
    91     1    62    1
    92     2    63    1
    93     3    64    1
    94     4    65    1
    95     5     6    1
    96     7     8    2
    97     9    78    1
    98    15    79    1
    99    18    80    1
   100    18    81    1
   101    19    82    1
   102    19    83    1
   103    20    23    1
   104    21    84    1
   105    21    85    1
   106    22    86    1
   107    22    87    1
   108    27    45    1
   109    28    34    1
   110    32    58    1
   111    33    46    2
   112    36    51    1
   113    36    66    1
   114    37    52    1
   115    37    67    1
   116    38    53    1
   117    38    68    1
   118    42    48    1
   119    42    72    1
   120    43    44    2
   121    60    73    1
   122    61    74    1
   123    39    69    1
   124    39    57    1
   125    40    70    1
   126    40    50    1
   127    41    71    1
   128    41    49    1
