@<TRIPOS>MOLECULE
*****
 123 128 0 0 0
SMALL
GASTEIGER

@<TRIPOS>ATOM
     1 C         0.433076   -0.99232   -5.144258 C.3        1 UNL1     0.0009
     2 C         1.626082   -0.760906   -6.544337 C.2        1 UNL1     -0.0787
     3 C         1.973027   -0.152289   -7.811326 C.2        1 UNL1     -0.0649
     4 C         3.44221   -0.253282   -8.646585 C.2        1 UNL1     -0.0542
     5 C         4.257822   0.346162   -9.637808 C.2        1 UNL1     0.0115
     6 C         4.289163   1.423753   -10.756351 C.3        1 UNL1     -0.0348
     7 C         5.818145   -0.027513   -9.690235 C.2        1 UNL1     0.2441
     8 O         6.288618   -0.807002   -10.507289 O.2        1 UNL1     -0.2702
     9 N         6.647383   0.795104   -8.908048 N.am        1 UNL1     -0.2772
     10 C         6.739977   0.303535   -7.62621 C.2        1 UNL1     0.1049
     11 C         5.756391   0.626962   -6.806347 C.2        1 UNL1     0.0801
     12 C         7.181402   -1.791192   -6.332148 C.ar        1 UNL1     0.0753
     13 C         5.982586   -1.501807   -5.605715 C.ar        1 UNL1     0.0305
     14 C         5.303525   -0.214155   -5.731725 C.2        1 UNL1     0.0924
     15 N         4.774683   1.533638   -6.950279 N.pl3        1 UNL1     -0.3170
     16 C         4.067575   1.61787   -5.700016 C.3        1 UNL1     0.1275
     17 N         4.251612   0.259059   -5.06955 N.2        1 UNL1     -0.2557
     18 C         4.828083   2.601485   -4.815804 C.3        1 UNL1     0.0016
     19 C         4.954346   3.923545   -5.555941 C.3        1 UNL1     0.0026
     20 N         3.618972   4.417971   -5.861474 N.3        1 UNL1     -0.3018
     21 C         2.787827   3.512546   -6.657571 C.3        1 UNL1     0.0026
     22 C         2.670519   2.192703   -5.893274 C.3        1 UNL1     0.0016
     23 C         3.61512   5.801152   -6.294415 C.3        1 UNL1     0.0012
     24 C         3.951935   6.733936   -5.120435 C.3        1 UNL1     -0.0339
     25 C         5.463137   6.759534   -4.838177 C.3        1 UNL1     -0.0615
     26 C         3.409942   8.126905   -5.389991 C.3        1 UNL1     -0.0615
     27 C         7.888789   -2.971558   -6.116607 C.ar        1 UNL1     0.1347
     28 C         7.518607   -3.91633   -5.17617 C.ar        1 UNL1     0.0342
     29 C         6.308632   -3.633139   -4.507644 C.ar        1 UNL1     0.1435
     30 C         5.570099   -2.472004   -4.739062 C.ar        1 UNL1     0.0774
     31 O         5.871664   -4.401045   -3.485692 O.3        1 UNL1     -0.4436
     32 C         4.933112   -3.571551   -2.784312 C.3        1 UNL1     0.3143
     33 C         4.468059   -2.550736   -3.803073 C.2        1 UNL1     0.2504
     34 C         8.356443   -5.075988   -4.714299 C.3        1 UNL1     -0.0327
     35 O         3.799647   -4.38761   -2.464065 O.2        1 UNL1     -0.4528
     36 C         2.367739   -2.964576   0.750387 C.3        1 UNL1     0.0854
     37 C         1.859895   -1.502451   1.053386 C.3        1 UNL1     0.0236
     38 C         0.358981   -1.410201   1.610603 C.3        1 UNL1     0.1131
     39 C         -0.810139   -2.149823   0.843538 C.3        1 UNL1     0.0200
     40 C         -0.903121   -2.083904   -0.820627 C.3        1 UNL1     0.0661
     41 C         -0.816095   -0.677944   -1.76578 C.3        1 UNL1     0.0091
     42 C         -0.142139   -0.417411   -3.451991 C.3        1 UNL1     0.0661
     43 C         7.695464   -0.752012   -7.258487 C.2        1 UNL1     0.2131
     44 O         8.855438   -0.690227   -7.623699 O.2        1 UNL1     -0.2851
     45 O         9.020311   -3.197315   -6.897715 O.3        1 UNL1     -0.5056
     46 O         3.415724   -1.953509   -3.845074 O.2        1 UNL1     -0.2836
     47 C         -0.743339   -1.905071   -5.583479 C.3        1 UNL1     -0.0566
     48 O         -1.321482   0.344574   -3.929113 O.3        1 UNL1     -0.3909
     49 C         -0.30552   0.457015   -0.906319 C.3        1 UNL1     -0.0577
     50 O         -0.126626   -3.109088   -1.406953 O.3        1 UNL1     -0.3910
     51 O         1.3978   -3.983957   0.837056 O.3        1 UNL1     -0.3753
     52 C         2.433497   -0.464431   0.034345 C.3        1 UNL1     -0.0564
     53 O         0.023573   -0.078099   2.215031 O.3        1 UNL1     -0.4608
     54 C         -1.184985   0.559767   2.112836 C.2        1 UNL1     0.3042
     55 O         -1.470703   1.505472   1.379455 O.2        1 UNL1     -0.2512
     56 C         -2.257379   -0.041797   2.975857 C.3        1 UNL1     0.0332
     57 C         -1.025073   -3.570413   1.54632 C.3        1 UNL1     -0.0567
     58 C         5.733142   -2.844204   -1.678668 C.3        1 UNL1     0.0210
     59 C         1.528668   -4.841066   1.970239 C.3        1 UNL1     0.0372
     60 C         3.052088   -3.133561   -0.560442 C.2        1 UNL1     -0.0208
     61 C         2.92461   -4.08553   -1.485779 C.2        1 UNL1     0.0882
     62 H         1.166531   -1.642273   -4.652001 H        1 UNL1     0.0365
     63 H         2.411699   -1.464373   -6.26077 H        1 UNL1     0.0576
     64 H         1.331192   0.595947   -8.281751 H        1 UNL1     0.0615
     65 H         3.967998   -1.073771   -8.150776 H        1 UNL1     0.0622
     66 H         3.13251   -3.155424   1.516381 H        1 UNL1     0.0645
     67 H         2.442187   -1.194593   1.93923 H        1 UNL1     0.0362
     68 H         0.480054   -1.959049   2.55698 H        1 UNL1     0.0741
     69 H         -1.754361   -1.720477   1.150971 H        1 UNL1     0.0359
     70 H         -1.950047   -2.412226   -0.966268 H        1 UNL1     0.0600
     71 H         -1.892572   -0.427383   -1.839085 H        1 UNL1     0.0348
     72 H         -0.321152   -1.498582   -3.360669 H        1 UNL1     0.0602
     73 H         3.820793   -2.406629   -0.649381 H        1 UNL1     0.0628
     74 H         2.128557   -4.83077   -1.498204 H        1 UNL1     0.1022
     75 H         3.385839   1.339339   -11.407437 H        1 UNL1     0.0279
     76 H         4.24797   2.46111   -10.431906 H        1 UNL1     0.0279
     77 H         5.097114   1.258041   -11.483988 H        1 UNL1     0.0279
     78 H         6.246139   1.728749   -8.84985 H        1 UNL1     0.1553
     79 H         4.807581   2.29045   -7.608372 H        1 UNL1     0.1484
     80 H         4.287993   2.72251   -3.869008 H        1 UNL1     0.0317
     81 H         5.82075   2.213698   -4.563049 H        1 UNL1     0.0317
     82 H         5.557722   3.822371   -6.470059 H        1 UNL1     0.0428
     83 H         5.501223   4.609592   -4.908395 H        1 UNL1     0.0428
     84 H         1.764703   3.872066   -6.805132 H        1 UNL1     0.0428
     85 H         3.177509   3.39063   -7.67767 H        1 UNL1     0.0428
     86 H         1.952494   1.606519   -6.436244 H        1 UNL1     0.0317
     87 H         2.180991   2.361832   -4.926396 H        1 UNL1     0.0317
     88 H         4.386098   5.919345   -7.067019 H        1 UNL1     0.0429
     89 H         2.655699   6.072695   -6.753272 H        1 UNL1     0.0429
     90 H         3.434617   6.380173   -4.220743 H        1 UNL1     0.0308
     91 H         5.907398   5.767139   -4.960186 H        1 UNL1     0.0233
     92 H         5.96859   7.463053   -5.503901 H        1 UNL1     0.0233
     93 H         5.691713   7.087011   -3.816734 H        1 UNL1     0.0233
     94 H         4.009283   8.622677   -6.161247 H        1 UNL1     0.0233
     95 H         2.380057   8.063461   -5.75231 H        1 UNL1     0.0233
     96 H         3.429224   8.744156   -4.487441 H        1 UNL1     0.0233
     97 H         8.536569   -5.047703   -3.643792 H        1 UNL1     0.0280
     98 H         7.872158   -6.041169   -4.912166 H        1 UNL1     0.0280
     99 H         9.330827   -5.05556   -5.229327 H        1 UNL1     0.0280
     100 H         8.890182   -3.070959   -7.821145 H        1 UNL1     0.2922
     101 H         -0.618167   -2.898619   -5.153536 H        1 UNL1     0.0236
     102 H         -0.877676   -1.940994   -6.664056 H        1 UNL1     0.0236
     103 H         -1.711268   -1.550469   -5.191605 H        1 UNL1     0.0236
     104 H         -1.907122   0.49312   -3.161044 H        1 UNL1     0.2098
     105 H         0.551745   0.982643   -1.319386 H        1 UNL1     0.0234
     106 H         -1.068725   1.168319   -0.590897 H        1 UNL1     0.0234
     107 H         0.0   0.0   0.0 H        1 UNL1     0.0234
     108 H         -0.69544   -3.899863   -1.476911 H        1 UNL1     0.2098
     109 H         3.5312   -0.418819   0.060407 H        1 UNL1     0.0234
     110 H         2.098365   -0.640025   -0.993565 H        1 UNL1     0.0234
     111 H         2.088324   0.55411   0.256549 H        1 UNL1     0.0234
     112 H         -3.197823   0.49873   2.831832 H        1 UNL1     0.0342
     113 H         -2.385818   -1.106534   2.786964 H        1 UNL1     0.0342
     114 H         -1.958621   0.076203   4.026563 H        1 UNL1     0.0342
     115 H         -2.080383   -3.876005   1.535317 H        1 UNL1     0.0234
     116 H         -0.444265   -4.379452   1.098919 H        1 UNL1     0.0234
     117 H         -0.817245   -3.560976   2.630137 H        1 UNL1     0.0234
     118 H         5.467228   -3.204374   -0.669424 H        1 UNL1     0.0309
     119 H         6.816955   -2.92016   -1.812017 H        1 UNL1     0.0309
     120 H         5.507669   -1.773175   -1.632151 H        1 UNL1     0.0309
     121 H         1.078553   -5.799363   1.712519 H        1 UNL1     0.0524
     122 H         2.583004   -5.029426   2.232789 H        1 UNL1     0.0524
     123 H         1.023324   -4.408458   2.829058 H        1 UNL1     0.0524
@<TRIPOS>BOND
     1     1     2    1
     2     1    42    1
     3     2     3    2
     4     3     4    1
     5     4     5    2
     6     5     7    1
     7     6    75    1
     8     6    76    1
     9     6    77    1
    10     7     9   am
    11     9    10    1
    12    10    11    2
    13    10    43    1
    14    11    14    1
    15    11    15    1
    16    12    13   ar
    17    12    27   ar
    18    12    43    1
    19    13    14    1
    20    13    30   ar
    21    14    17    2
    22    15    16    1
    23    16    17    1
    24    16    18    1
    25    16    22    1
    26    18    19    1
    27    19    20    1
    28    20    21    1
    29    21    22    1
    30    23    24    1
    31    23    88    1
    32    23    89    1
    33    24    25    1
    34    24    26    1
    35    24    90    1
    36    25    91    1
    37    25    92    1
    38    25    93    1
    39    26    94    1
    40    26    95    1
    41    26    96    1
    42    27    28   ar
    43    28    29   ar
    44    29    30   ar
    45    29    31    1
    46    30    33    1
    47    31    32    1
    48    32    33    1
    49    32    35    1
    50    34    97    1
    51    34    98    1
    52    34    99    1
    53    35    61    1
    54    36    37    1
    55    36    60    1
    56    37    38    1
    57    38    39    1
    58    39    40    1
    59    40    41    1
    60    41    42    1
    61    45   100    1
    62    47   101    1
    63    47   102    1
    64    47   103    1
    65    48   104    1
    66    49   105    1
    67    49   106    1
    68    49   107    1
    69    50   108    1
    70    51    59    1
    71    52   109    1
    72    52   110    1
    73    52   111    1
    74    53    54    1
    75    54    55    2
    76    54    56    1
    77    56   112    1
    78    56   113    1
    79    56   114    1
    80    57   115    1
    81    57   116    1
    82    57   117    1
    83    58   118    1
    84    58   119    1
    85    58   120    1
    86    59   121    1
    87    59   122    1
    88    59   123    1
    89    60    61    2
    90     1    47    1
    91     1    62    1
    92     2    63    1
    93     3    64    1
    94     4    65    1
    95     5     6    1
    96     7     8    2
    97     9    78    1
    98    15    79    1
    99    18    80    1
   100    18    81    1
   101    19    82    1
   102    19    83    1
   103    20    23    1
   104    21    84    1
   105    21    85    1
   106    22    86    1
   107    22    87    1
   108    27    45    1
   109    28    34    1
   110    32    58    1
   111    33    46    2
   112    36    51    1
   113    36    66    1
   114    37    52    1
   115    37    67    1
   116    38    53    1
   117    38    68    1
   118    42    48    1
   119    42    72    1
   120    43    44    2
   121    60    73    1
   122    61    74    1
   123    39    69    1
   124    39    57    1
   125    40    70    1
   126    40    50    1
   127    41    71    1
   128    41    49    1
