@<TRIPOS>MOLECULE
*****
 123 128 0 0 0
SMALL
GASTEIGER

@<TRIPOS>ATOM
     1 C         5.168161   1.747065   0.486976 C.3        1 UNL1     0.0009
     2 C         6.604407   2.552694   -0.364608 C.2        1 UNL1     -0.0787
     3 C         7.885696   2.454079   -1.031407 C.2        1 UNL1     -0.0649
     4 C         8.762925   3.68891   -1.787726 C.2        1 UNL1     -0.0542
     5 C         9.782264   3.981215   -2.727185 C.2        1 UNL1     0.0115
     6 C         10.909529   3.355394   -3.593755 C.3        1 UNL1     -0.0348
     7 C         9.877591   5.46444   -3.333771 C.2        1 UNL1     0.2441
     8 O         10.702065   6.285812   -2.956787 O.2        1 UNL1     -0.2702
     9 N         9.126461   5.671657   -4.50382 N.am        1 UNL1     -0.2772
     10 C         7.844138   6.058767   -4.188994 C.2        1 UNL1     0.1049
     11 C         6.998272   5.087636   -3.896353 C.2        1 UNL1     0.0801
     12 C         6.547462   7.665852   -2.777172 C.ar        1 UNL1     0.0753
     13 C         5.788402   6.538191   -2.329048 C.ar        1 UNL1     0.0305
     14 C         5.904357   5.232451   -2.974531 C.2        1 UNL1     0.0924
     15 N         7.120315   3.758617   -4.055543 N.pl3        1 UNL1     -0.3170
     16 C         5.850518   3.159872   -3.740305 C.3        1 UNL1     0.1275
     17 N         5.215257   4.11532   -2.759853 N.2        1 UNL1     -0.2557
     18 C         4.996634   3.219227   -5.003263 C.3        1 UNL1     0.0016
     19 C         5.750342   2.534882   -6.132503 C.3        1 UNL1     0.0026
     20 N         6.020346   1.15669   -5.746869 N.3        1 UNL1     -0.3018
     21 C         6.784685   0.996042   -4.508181 C.3        1 UNL1     0.0026
     22 C         6.007108   1.686823   -3.386535 C.3        1 UNL1     0.0016
     23 C         6.463651   0.337003   -6.85693 C.3        1 UNL1     0.0012
     24 C         5.307302   0.087912   -7.838035 C.3        1 UNL1     -0.0339
     25 C         5.34236   1.080047   -9.012129 C.3        1 UNL1     -0.0615
     26 C         5.335518   -1.351596   -8.321565 C.3        1 UNL1     -0.0615
     27 C         6.343677   8.933615   -2.237388 C.ar        1 UNL1     0.1347
     28 C         5.385512   9.203486   -1.276586 C.ar        1 UNL1     0.0342
     29 C         4.683957   8.069272   -0.815564 C.ar        1 UNL1     0.1435
     30 C         4.902548   6.78717   -1.321185 C.ar        1 UNL1     0.0774
     31 O         3.643719   8.183189   0.038798 O.3        1 UNL1     -0.4436
     32 C         2.92151   6.95061   -0.102752 C.3        1 UNL1     0.3143
     33 C         3.934028   5.957164   -0.635747 C.2        1 UNL1     0.2504
     34 C         4.939501   10.569741   -0.835542 C.3        1 UNL1     -0.0327
     35 O         2.561833   6.514038   1.213793 O.2        1 UNL1     -0.4528
     36 C         -0.682192   4.582934   0.819799 C.3        1 UNL1     0.0854
     37 C         -0.988675   3.322446   -0.077286 C.3        1 UNL1     0.0236
     38 C         -1.588988   2.061609   0.711167 C.3        1 UNL1     0.1131
     39 C         -0.862311   1.530442   2.011964 C.3        1 UNL1     0.0200
     40 C         0.798866   1.384341   2.051732 C.3        1 UNL1     0.0661
     41 C         1.756992   0.61518   0.882118 C.3        1 UNL1     0.0091
     42 C         3.464224   0.97716   0.31667 C.3        1 UNL1     0.0661
     43 C         7.496488   7.457821   -3.898926 C.2        1 UNL1     0.2131
     44 O         7.896066   8.355758   -4.617804 O.2        1 UNL1     -0.2851
     45 O         7.155903   9.968446   -2.696575 O.3        1 UNL1     -0.5056
     46 O         3.949724   4.753626   -0.504969 O.2        1 UNL1     -0.2836
     47 C         5.565595   1.317472   1.924849 C.3        1 UNL1     -0.0566
     48 O         3.912383   -0.434095   0.398094 O.3        1 UNL1     -0.3909
     49 C         0.921678   0.382854   -0.357144 C.3        1 UNL1     -0.0577
     50 O         1.399806   2.602007   2.444013 O.3        1 UNL1     -0.3910
     51 O         -0.805166   4.393321   2.211329 O.3        1 UNL1     -0.3753
     52 C         0.054751   3.161608   -1.230691 C.3        1 UNL1     -0.0564
     53 O         -2.192702   1.022815   -0.188146 O.3        1 UNL1     -0.4608
     54 C         -2.427264   -0.283853   0.151751 C.2        1 UNL1     0.3042
     55 O         -1.858873   -1.283181   -0.286556 O.2        1 UNL1     -0.2512
     56 C         -3.46643   -0.449131   1.223913 C.3        1 UNL1     0.0332
     57 C         -1.582045   2.199698   3.273809 C.3        1 UNL1     -0.0567
     58 C         1.845479   7.196046   -1.18601 C.3        1 UNL1     0.0210
     59 C         -1.117339   5.572444   2.951655 C.3        1 UNL1     0.0372
     60 C         0.64682   5.211566   0.588045 C.2        1 UNL1     -0.0208
     61 C         1.56064   5.646506   1.456668 C.2        1 UNL1     0.0882
     62 H         4.692647   2.7314   0.57463 H        1 UNL1     0.0365
     63 H         6.338605   3.606585   -0.259097 H        1 UNL1     0.0576
     64 H         8.342836   1.487071   -1.252825 H        1 UNL1     0.0615
     65 H         8.276446   4.604478   -1.440511 H        1 UNL1     0.0622
     66 H         -1.426853   5.329708   0.510195 H        1 UNL1     0.0645
     67 H         -1.854638   3.632092   -0.687848 H        1 UNL1     0.0362
     68 H         -2.535611   2.498812   1.063701 H        1 UNL1     0.0741
     69 H         -1.194009   0.51946   2.207668 H        1 UNL1     0.0359
     70 H         0.911169   0.723991   2.932859 H        1 UNL1     0.0600
     71 H         1.800593   -0.405991   1.309044 H        1 UNL1     0.0348
     72 H         3.359342   1.465421   1.296423 H        1 UNL1     0.0602
     73 H         0.763899   5.408754   -0.448612 H        1 UNL1     0.0628
     74 H         1.543935   5.435872   2.526524 H        1 UNL1     0.1022
     75 H         10.935135   2.246718   -3.462543 H        1 UNL1     0.0279
     76 H         10.808452   3.46146   -4.671532 H        1 UNL1     0.0279
     77 H         11.915784   3.637574   -3.250935 H        1 UNL1     0.0279
     78 H         9.063717   4.801717   -5.028554 H        1 UNL1     0.1553
     79 H         7.784913   3.330387   -4.673492 H        1 UNL1     0.1484
     80 H         4.035352   2.728624   -4.808295 H        1 UNL1     0.0317
     81 H         4.770146   4.25605   -5.274097 H        1 UNL1     0.0317
     82 H         6.680973   3.065862   -6.381297 H        1 UNL1     0.0428
     83 H         5.124447   2.590216   -7.023707 H        1 UNL1     0.0428
     84 H         6.904915   -0.046944   -4.199089 H        1 UNL1     0.0428
     85 H         7.814813   1.363722   -4.612888 H        1 UNL1     0.0428
     86 H         6.524222   1.436307   -2.478888 H        1 UNL1     0.0317
     87 H         5.027608   1.209522   -3.260596 H        1 UNL1     0.0317
     88 H         7.259447   0.878516   -7.384914 H        1 UNL1     0.0429
     89 H         6.896225   -0.608908   -6.506349 H        1 UNL1     0.0429
     90 H         4.354762   0.207324   -7.308298 H        1 UNL1     0.0308
     91 H         6.295055   1.028933   -9.547724 H        1 UNL1     0.0233
     92 H         4.526804   0.88033   -9.711121 H        1 UNL1     0.0233
     93 H         5.216862   2.119208   -8.684669 H        1 UNL1     0.0233
     94 H         4.64027   -1.482849   -9.15777 H        1 UNL1     0.0233
     95 H         6.338637   -1.607846   -8.673772 H        1 UNL1     0.0233
     96 H         5.053032   -2.0457   -7.525079 H        1 UNL1     0.0233
     97 H         4.140479   10.520388   -0.101812 H        1 UNL1     0.0280
     98 H         5.750429   11.13604   -0.359142 H        1 UNL1     0.0280
     99 H         4.574078   11.137752   -1.706705 H        1 UNL1     0.0280
     100 H         6.688864   10.719729   -3.017621 H        1 UNL1     0.2922
     101 H         4.699932   0.895556   2.435018 H        1 UNL1     0.0236
     102 H         6.028233   2.119298   2.499327 H        1 UNL1     0.0236
     103 H         6.312392   0.506002   1.92311 H        1 UNL1     0.0236
     104 H         4.332306   -0.560292   1.271427 H        1 UNL1     0.2098
     105 H         0.708844   1.281739   -0.930308 H        1 UNL1     0.0234
     106 H         1.290239   -0.405313   -1.013561 H        1 UNL1     0.0234
     107 H         0.0   -0.0   0.0 H        1 UNL1     0.0234
     108 H         1.2159   3.255635   1.742075 H        1 UNL1     0.2098
     109 H         1.081325   3.06019   -0.851784 H        1 UNL1     0.0234
     110 H         -0.171884   2.32695   -1.902798 H        1 UNL1     0.0234
     111 H         0.066884   4.039168   -1.890757 H        1 UNL1     0.0234
     112 H         -3.589976   -1.50996   1.462078 H        1 UNL1     0.0342
     113 H         -3.228559   0.126692   2.117047 H        1 UNL1     0.0342
     114 H         -4.424055   -0.077826   0.833719 H        1 UNL1     0.0342
     115 H         -2.651719   1.951783   3.312838 H        1 UNL1     0.0234
     116 H         -1.144858   1.919822   4.234323 H        1 UNL1     0.0234
     117 H         -1.620315   3.301566   3.225178 H        1 UNL1     0.0234
     118 H         0.944299   7.681858   -0.772649 H        1 UNL1     0.0309
     119 H         2.213893   7.785177   -2.031822 H        1 UNL1     0.0309
     120 H         1.457336   6.264239   -1.611672 H        1 UNL1     0.0309
     121 H         -0.284696   6.265484   2.834361 H        1 UNL1     0.0524
     122 H         -2.02348   6.07539   2.57484 H        1 UNL1     0.0524
     123 H         -1.258867   5.330777   4.001256 H        1 UNL1     0.0524
@<TRIPOS>BOND
     1     1     2    1
     2     1    42    1
     3     2     3    2
     4     3     4    1
     5     4     5    2
     6     5     7    1
     7     6    75    1
     8     6    76    1
     9     6    77    1
    10     7     9   am
    11     9    10    1
    12    10    11    2
    13    10    43    1
    14    11    14    1
    15    11    15    1
    16    12    13   ar
    17    12    27   ar
    18    12    43    1
    19    13    14    1
    20    13    30   ar
    21    14    17    2
    22    15    16    1
    23    16    17    1
    24    16    18    1
    25    16    22    1
    26    18    19    1
    27    19    20    1
    28    20    21    1
    29    21    22    1
    30    23    24    1
    31    23    88    1
    32    23    89    1
    33    24    25    1
    34    24    26    1
    35    24    90    1
    36    25    91    1
    37    25    92    1
    38    25    93    1
    39    26    94    1
    40    26    95    1
    41    26    96    1
    42    27    28   ar
    43    28    29   ar
    44    29    30   ar
    45    29    31    1
    46    30    33    1
    47    31    32    1
    48    32    33    1
    49    32    35    1
    50    34    97    1
    51    34    98    1
    52    34    99    1
    53    35    61    1
    54    36    37    1
    55    36    60    1
    56    37    38    1
    57    38    39    1
    58    39    40    1
    59    40    41    1
    60    41    42    1
    61    45   100    1
    62    47   101    1
    63    47   102    1
    64    47   103    1
    65    48   104    1
    66    49   105    1
    67    49   106    1
    68    49   107    1
    69    50   108    1
    70    51    59    1
    71    52   109    1
    72    52   110    1
    73    52   111    1
    74    53    54    1
    75    54    55    2
    76    54    56    1
    77    56   112    1
    78    56   113    1
    79    56   114    1
    80    57   115    1
    81    57   116    1
    82    57   117    1
    83    58   118    1
    84    58   119    1
    85    58   120    1
    86    59   121    1
    87    59   122    1
    88    59   123    1
    89    60    61    2
    90     1    47    1
    91     1    62    1
    92     2    63    1
    93     3    64    1
    94     4    65    1
    95     5     6    1
    96     7     8    2
    97     9    78    1
    98    15    79    1
    99    18    80    1
   100    18    81    1
   101    19    82    1
   102    19    83    1
   103    20    23    1
   104    21    84    1
   105    21    85    1
   106    22    86    1
   107    22    87    1
   108    27    45    1
   109    28    34    1
   110    32    58    1
   111    33    46    2
   112    36    51    1
   113    36    66    1
   114    37    52    1
   115    37    67    1
   116    38    53    1
   117    38    68    1
   118    42    48    1
   119    42    72    1
   120    43    44    2
   121    60    73    1
   122    61    74    1
   123    39    69    1
   124    39    57    1
   125    40    70    1
   126    40    50    1
   127    41    71    1
   128    41    49    1
