@<TRIPOS>MOLECULE
*****
 123 128 0 0 0
SMALL
GASTEIGER

@<TRIPOS>ATOM
     1 C         4.971878   2.239069   0.527977 C.3        1 UNL1     0.0009
     2 C         6.359019   3.115885   -0.334618 C.2        1 UNL1     -0.0787
     3 C         7.671256   3.094355   -0.945859 C.2        1 UNL1     -0.0649
     4 C         8.457064   4.348702   -1.767733 C.2        1 UNL1     -0.0542
     5 C         9.482844   4.668074   -2.691235 C.2        1 UNL1     0.0115
     6 C         10.701272   4.092892   -3.464488 C.3        1 UNL1     -0.0348
     7 C         9.46076   6.102587   -3.411424 C.2        1 UNL1     0.2441
     8 O         10.185343   7.028305   -3.072969 O.2        1 UNL1     -0.2702
     9 N         8.744025   6.143873   -4.620034 N.am        1 UNL1     -0.2772
     10 C         7.418059   6.424555   -4.382647 C.2        1 UNL1     0.1049
     11 C         6.657916   5.399427   -4.042768 C.2        1 UNL1     0.0801
     12 C         5.913252   7.998165   -3.151127 C.ar        1 UNL1     0.0753
     13 C         5.247844   6.838282   -2.640723 C.ar        1 UNL1     0.0305
     14 C         5.516623   5.504952   -3.174615 C.2        1 UNL1     0.0924
     15 N         6.914139   4.080855   -4.090159 N.pl3        1 UNL1     -0.3170
     16 C         5.695587   3.384753   -3.772628 C.3        1 UNL1     0.1275
     17 N         4.92978   4.34459   -2.895145 N.2        1 UNL1     -0.2557
     18 C         4.894899   3.262014   -5.065507 C.3        1 UNL1     0.0016
     19 C         5.758755   2.571514   -6.108845 C.3        1 UNL1     0.0026
     20 N         6.143489   1.260599   -5.604356 N.3        1 UNL1     -0.3018
     21 C         6.865929   1.272085   -4.330654 C.3        1 UNL1     0.0026
     22 C         5.978044   1.966015   -3.296239 C.3        1 UNL1     0.0016
     23 C         6.710888   0.406438   -6.628618 C.3        1 UNL1     0.0012
     24 C         5.627051   -0.030789   -7.62656 C.3        1 UNL1     -0.0339
     25 C         5.852888   0.595776   -9.012371 C.3        1 UNL1     -0.0615
     26 C         5.568856   -1.546645   -7.7012 C.3        1 UNL1     -0.0615
     27 C         5.565324   9.276991   -2.722559 C.ar        1 UNL1     0.1347
     28 C         4.545305   9.523065   -1.820862 C.ar        1 UNL1     0.0342
     29 C         3.93716   8.363386   -1.295061 C.ar        1 UNL1     0.1435
     30 C         4.299727   7.074423   -1.687924 C.ar        1 UNL1     0.0774
     31 O         2.855112   8.438427   -0.489735 O.3        1 UNL1     -0.4436
     32 C         2.261743   7.132954   -0.556995 C.3        1 UNL1     0.3143
     33 C         3.387177   6.207196   -0.972428 C.2        1 UNL1     0.2504
     34 C         3.951246   10.86796   -1.507091 C.3        1 UNL1     -0.0327
     35 O         1.889678   6.764916   0.776934 O.2        1 UNL1     -0.4528
     36 C         -1.133329   4.4964   0.425718 C.3        1 UNL1     0.0854
     37 C         -1.278205   3.146697   -0.377298 C.3        1 UNL1     0.0236
     38 C         -1.787514   1.89654   0.488413 C.3        1 UNL1     0.1131
     39 C         -1.069494   1.541449   1.852461 C.3        1 UNL1     0.0200
     40 C         0.594791   1.564695   1.962236 C.3        1 UNL1     0.0661
     41 C         1.671826   0.807279   0.892691 C.3        1 UNL1     0.0091
     42 C         3.358914   1.29281   0.360339 C.3        1 UNL1     0.0661
     43 C         6.925128   7.800205   -4.218449 C.2        1 UNL1     0.2131
     44 O         7.266798   8.675704   -4.992724 O.2        1 UNL1     -0.2851
     45 O         6.293019   10.349215   -3.234646 O.3        1 UNL1     -0.5056
     46 O         3.513123   5.02475   -0.744802 O.2        1 UNL1     -0.2836
     47 C         5.346826   1.962517   2.008826 C.3        1 UNL1     -0.0566
     48 O         3.937039   -0.056497   0.570715 O.3        1 UNL1     -0.3909
     49 C         0.91669   0.398826   -0.352472 C.3        1 UNL1     -0.0577
     50 O         1.058253   2.862522   2.276195 O.3        1 UNL1     -0.3910
     51 O         -1.297019   4.402645   1.822803 O.3        1 UNL1     -0.3753
     52 C         -0.175645   3.002517   -1.476627 C.3        1 UNL1     -0.0564
     53 O         -2.249225   0.737058   -0.345104 O.3        1 UNL1     -0.4608
     54 C         -2.375118   -0.555804   0.091459 C.2        1 UNL1     0.3042
     55 O         -1.495768   -1.414642   0.146049 O.2        1 UNL1     -0.2512
     56 C         -3.749271   -0.887885   0.599531 C.3        1 UNL1     0.0332
     57 C         -1.903797   2.230513   3.030301 C.3        1 UNL1     -0.0567
     58 C         1.214516   7.186503   -1.693647 C.3        1 UNL1     0.0210
     59 C         -0.358123   5.156603   2.588235 C.3        1 UNL1     0.0372
     60 C         0.13765   5.234434   0.191026 C.2        1 UNL1     -0.0208
     61 C         0.967227   5.823314   1.053445 C.2        1 UNL1     0.0882
     62 H         4.400428   3.175062   0.519402 H        1 UNL1     0.0365
     63 H         5.988645   4.143101   -0.323625 H        1 UNL1     0.0576
     64 H         8.228501   2.163479   -1.072571 H        1 UNL1     0.0615
     65 H         7.870207   5.235262   -1.512603 H        1 UNL1     0.0622
     66 H         -1.932506   5.139526   0.031062 H        1 UNL1     0.0645
     67 H         -2.14299   3.32104   -1.040858 H        1 UNL1     0.0362
     68 H         -2.786095   2.263181   0.771138 H        1 UNL1     0.0741
     69 H         -1.31034   0.520475   2.117062 H        1 UNL1     0.0359
     70 H         0.732302   0.98822   2.897024 H        1 UNL1     0.0600
     71 H         1.795255   -0.168783   1.401635 H        1 UNL1     0.0348
     72 H         3.165568   1.841829   1.293351 H        1 UNL1     0.0602
     73 H         0.27953   5.362299   -0.853372 H        1 UNL1     0.0628
     74 H         0.925033   5.69463   2.135525 H        1 UNL1     0.1022
     75 H         11.362265   3.511081   -2.777744 H        1 UNL1     0.0279
     76 H         10.481945   3.369833   -4.246888 H        1 UNL1     0.0279
     77 H         11.389444   4.875327   -3.816505 H        1 UNL1     0.0279
     78 H         8.787939   5.234382   -5.074979 H        1 UNL1     0.1553
     79 H         7.642784   3.674749   -4.647911 H        1 UNL1     0.1484
     80 H         3.977881   2.694658   -4.865633 H        1 UNL1     0.0317
     81 H         4.581402   4.247379   -5.426652 H        1 UNL1     0.0317
     82 H         6.643712   3.171758   -6.366663 H        1 UNL1     0.0428
     83 H         5.169233   2.495926   -7.023066 H        1 UNL1     0.0428
     84 H         7.072714   0.272973   -3.93464 H        1 UNL1     0.0428
     85 H         7.859382   1.731248   -4.42831 H        1 UNL1     0.0428
     86 H         6.477489   1.838409   -2.353764 H        1 UNL1     0.0317
     87 H         5.044587   1.404757   -3.166837 H        1 UNL1     0.0317
     88 H         7.472718   0.982343   -7.170136 H        1 UNL1     0.0429
     89 H         7.217144   -0.462137   -6.1881 H        1 UNL1     0.0429
     90 H         4.646351   0.288647   -7.254537 H        1 UNL1     0.0308
     91 H         6.898705   0.509686   -9.322141 H        1 UNL1     0.0233
     92 H         5.216636   0.117643   -9.760823 H        1 UNL1     0.0233
     93 H         5.601488   1.66309   -9.034129 H        1 UNL1     0.0233
     94 H         5.110027   -1.861   -8.644859 H        1 UNL1     0.0233
     95 H         6.579922   -1.961694   -7.663229 H        1 UNL1     0.0233
     96 H         4.984501   -1.964631   -6.876709 H        1 UNL1     0.0233
     97 H         2.885017   10.899906   -1.710476 H        1 UNL1     0.0280
     98 H         4.063154   11.132791   -0.447564 H        1 UNL1     0.0280
     99 H         4.443265   11.640822   -2.120033 H        1 UNL1     0.0280
     100 H         5.958883   10.699302   -4.041749 H        1 UNL1     0.2922
     101 H         4.817988   2.659718   2.658362 H        1 UNL1     0.0236
     102 H         6.421476   1.97164   2.187791 H        1 UNL1     0.0236
     103 H         5.015162   0.964446   2.340556 H        1 UNL1     0.0236
     104 H         4.250982   -0.102038   1.495019 H        1 UNL1     0.2098
     105 H         0.685099   1.219516   -1.026746 H        1 UNL1     0.0234
     106 H         1.361948   -0.429093   -0.904035 H        1 UNL1     0.0234
     107 H         0.0   -0.0   0.0 H        1 UNL1     0.0234
     108 H         2.019642   2.876549   2.105014 H        1 UNL1     0.2098
     109 H         -0.482894   3.445041   -2.43448 H        1 UNL1     0.0234
     110 H         0.791076   3.41909   -1.173873 H        1 UNL1     0.0234
     111 H         0.044651   1.948694   -1.693131 H        1 UNL1     0.0234
     112 H         -3.775943   -1.92393   0.950595 H        1 UNL1     0.0342
     113 H         -4.073859   -0.202167   1.380734 H        1 UNL1     0.0342
     114 H         -4.455557   -0.797548   -0.237227 H        1 UNL1     0.0342
     115 H         -1.948691   1.594554   3.925135 H        1 UNL1     0.0234
     116 H         -1.516369   3.203721   3.338223 H        1 UNL1     0.0234
     117 H         -2.976362   2.348672   2.798816 H        1 UNL1     0.0234
     118 H         0.181287   7.131728   -1.308362 H        1 UNL1     0.0309
     119 H         1.313741   8.073174   -2.327817 H        1 UNL1     0.0309
     120 H         1.279412   6.324025   -2.365976 H        1 UNL1     0.0309
     121 H         -0.267402   4.678008   3.562952 H        1 UNL1     0.0524
     122 H         0.644269   5.166583   2.128725 H        1 UNL1     0.0524
     123 H         -0.703173   6.180154   2.70389 H        1 UNL1     0.0524
@<TRIPOS>BOND
     1     1     2    1
     2     1    42    1
     3     2     3    2
     4     3     4    1
     5     4     5    2
     6     5     7    1
     7     6    75    1
     8     6    76    1
     9     6    77    1
    10     7     9   am
    11     9    10    1
    12    10    11    2
    13    10    43    1
    14    11    14    1
    15    11    15    1
    16    12    13   ar
    17    12    27   ar
    18    12    43    1
    19    13    14    1
    20    13    30   ar
    21    14    17    2
    22    15    16    1
    23    16    17    1
    24    16    18    1
    25    16    22    1
    26    18    19    1
    27    19    20    1
    28    20    21    1
    29    21    22    1
    30    23    24    1
    31    23    88    1
    32    23    89    1
    33    24    25    1
    34    24    26    1
    35    24    90    1
    36    25    91    1
    37    25    92    1
    38    25    93    1
    39    26    94    1
    40    26    95    1
    41    26    96    1
    42    27    28   ar
    43    28    29   ar
    44    29    30   ar
    45    29    31    1
    46    30    33    1
    47    31    32    1
    48    32    33    1
    49    32    35    1
    50    34    97    1
    51    34    98    1
    52    34    99    1
    53    35    61    1
    54    36    37    1
    55    36    60    1
    56    37    38    1
    57    38    39    1
    58    39    40    1
    59    40    41    1
    60    41    42    1
    61    45   100    1
    62    47   101    1
    63    47   102    1
    64    47   103    1
    65    48   104    1
    66    49   105    1
    67    49   106    1
    68    49   107    1
    69    50   108    1
    70    51    59    1
    71    52   109    1
    72    52   110    1
    73    52   111    1
    74    53    54    1
    75    54    55    2
    76    54    56    1
    77    56   112    1
    78    56   113    1
    79    56   114    1
    80    57   115    1
    81    57   116    1
    82    57   117    1
    83    58   118    1
    84    58   119    1
    85    58   120    1
    86    59   121    1
    87    59   122    1
    88    59   123    1
    89    60    61    2
    90     1    47    1
    91     1    62    1
    92     2    63    1
    93     3    64    1
    94     4    65    1
    95     5     6    1
    96     7     8    2
    97     9    78    1
    98    15    79    1
    99    18    80    1
   100    18    81    1
   101    19    82    1
   102    19    83    1
   103    20    23    1
   104    21    84    1
   105    21    85    1
   106    22    86    1
   107    22    87    1
   108    27    45    1
   109    28    34    1
   110    32    58    1
   111    33    46    2
   112    36    51    1
   113    36    66    1
   114    37    52    1
   115    37    67    1
   116    38    53    1
   117    38    68    1
   118    42    48    1
   119    42    72    1
   120    43    44    2
   121    60    73    1
   122    61    74    1
   123    39    69    1
   124    39    57    1
   125    40    70    1
   126    40    50    1
   127    41    71    1
   128    41    49    1
