@<TRIPOS>MOLECULE
*****
 123 128 0 0 0
SMALL
GASTEIGER

@<TRIPOS>ATOM
     1 C         -0.301481   2.413656   -4.575691 C.3        1 UNL1     0.0009
     2 C         -1.19542   2.240243   -6.190572 C.2        1 UNL1     -0.0787
     3 C         -1.174998   1.998975   -7.617953 C.2        1 UNL1     -0.0649
     4 C         -2.495655   1.831071   -8.663913 C.2        1 UNL1     -0.0542
     5 C         -2.926224   1.338389   -9.920477 C.2        1 UNL1     0.0115
     6 C         -2.439302   0.752779   -11.274468 C.3        1 UNL1     -0.0348
     7 C         -4.496406   1.119115   -10.172341 C.2        1 UNL1     0.2441
     8 O         -5.181416   1.897903   -10.821013 O.2        1 UNL1     -0.2702
     9 N         -4.976881   -0.154661   -9.821928 N.am        1 UNL1     -0.2772
     10 C         -5.351998   -0.178991   -8.49829 C.2        1 UNL1     0.1049
     11 C         -4.383324   -0.375407   -7.622326 C.2        1 UNL1     0.0801
     12 C         -6.693367   1.066737   -6.793525 C.ar        1 UNL1     0.0753
     13 C         -5.535414   1.008298   -5.954277 C.ar        1 UNL1     0.0305
     14 C         -4.387165   0.170138   -6.29201 C.2        1 UNL1     0.0924
     15 N         -3.111562   -0.76587   -7.813868 N.pl3        1 UNL1     -0.3170
     16 C         -2.522579   -0.994217   -6.521115 C.3        1 UNL1     0.1275
     17 N         -3.284358   -0.08074   -5.592149 N.2        1 UNL1     -0.2557
     18 C         -2.88271   -2.417231   -6.105135 C.3        1 UNL1     0.0016
     19 C         -2.410887   -3.374582   -7.187933 C.3        1 UNL1     0.0026
     20 N         -0.971371   -3.224543   -7.350135 N.3        1 UNL1     -0.3018
     21 C         -0.521587   -1.873212   -7.690672 C.3        1 UNL1     0.0026
     22 C         -1.00242   -0.928947   -6.587468 C.3        1 UNL1     0.0016
     23 C         -0.378301   -4.289034   -8.134846 C.3        1 UNL1     0.0012
     24 C         -1.155197   -4.488935   -9.445658 C.3        1 UNL1     -0.0339
     25 C         -1.170074   -5.966455   -9.870831 C.3        1 UNL1     -0.0615
     26 C         -2.561764   -3.932855   -9.307376 C.3        1 UNL1     -0.0615
     27 C         -7.830579   1.771651   -6.406272 C.ar        1 UNL1     0.1347
     28 C         -7.942026   2.421871   -5.190195 C.ar        1 UNL1     0.0342
     29 C         -6.77223   2.391846   -4.401627 C.ar        1 UNL1     0.1435
     30 C         -5.613234   1.720161   -4.792507 C.ar        1 UNL1     0.0774
     31 O         -6.757225   2.884993   -3.144015 O.3        1 UNL1     -0.4436
     32 C         -5.616794   2.269276   -2.526616 C.3        1 UNL1     0.3143
     33 C         -4.707235   1.879568   -3.67424 C.2        1 UNL1     0.2504
     34 C         -9.207574   2.98091   -4.602008 C.3        1 UNL1     -0.0327
     35 O         -4.935509   3.285683   -1.780948 O.2        1 UNL1     -0.4528
     36 C         -3.286275   1.505864   1.138018 C.3        1 UNL1     0.0854
     37 C         -2.254611   0.312979   1.123369 C.3        1 UNL1     0.0236
     38 C         -0.888541   0.591101   1.91599 C.3        1 UNL1     0.1131
     39 C         -0.065659   1.910031   1.623491 C.3        1 UNL1     0.0200
     40 C         0.165475   2.431502   0.055982 C.3        1 UNL1     0.0661
     41 C         0.721704   1.482243   -1.235191 C.3        1 UNL1     0.0091
     42 C         0.333505   1.564397   -3.026268 C.3        1 UNL1     0.0661
     43 C         -6.676046   0.277567   -8.050175 C.2        1 UNL1     0.2131
     44 O         -7.682786   -0.07503   -8.637445 O.2        1 UNL1     -0.2851
     45 O         -8.897535   1.816722   -7.301264 O.3        1 UNL1     -0.5056
     46 O         -3.503319   1.751375   -3.671494 O.2        1 UNL1     -0.2836
     47 C         0.434576   3.77893   -4.510668 C.3        1 UNL1     -0.0566
     48 O         1.751075   1.480773   -3.453605 O.3        1 UNL1     -0.3909
     49 C         0.652405   0.02533   -0.835072 C.3        1 UNL1     -0.0577
     50 O         -0.914431   3.23883   -0.367984 O.3        1 UNL1     -0.3910
     51 O         -2.819416   2.717399   1.687251 O.3        1 UNL1     -0.3753
     52 C         -2.285393   -0.466265   -0.23191 C.3        1 UNL1     -0.0564
     53 O         -0.088323   -0.649245   2.187136 O.3        1 UNL1     -0.4608
     54 C         1.278812   -0.736849   2.15257 C.2        1 UNL1     0.3042
     55 O         1.973956   -1.219195   1.259286 O.2        1 UNL1     -0.2512
     56 C         1.951947   -0.107681   3.339057 C.3        1 UNL1     0.0332
     57 C         -0.4937   2.997644   2.715304 C.3        1 UNL1     -0.0567
     58 C         -6.13236   0.983198   -1.839793 C.3        1 UNL1     0.0210
     59 C         -3.186993   3.887234   0.957705 C.3        1 UNL1     0.0372
     60 C         -3.88436   1.836278   -0.184208 C.2        1 UNL1     -0.0208
     61 C         -4.085851   3.016829   -0.771104 C.2        1 UNL1     0.0882
     62 H         -1.268239   2.555307   -4.077668 H        1 UNL1     0.0365
     63 H         -2.216343   2.478216   -5.884705 H        1 UNL1     0.0576
     64 H         -0.253696   1.731302   -8.140123 H        1 UNL1     0.0615
     65 H         -3.342113   2.195367   -8.075458 H        1 UNL1     0.0622
     66 H         -4.11594   1.145603   1.76245 H        1 UNL1     0.0645
     67 H         -2.72513   -0.456224   1.760156 H        1 UNL1     0.0362
     68 H         -1.288626   0.716475   2.933701 H        1 UNL1     0.0741
     69 H         0.946738   1.774899   1.980142 H        1 UNL1     0.0359
     70 H         0.998255   3.143519   0.212732 H        1 UNL1     0.0600
     71 H         1.809935   1.675728   -1.162577 H        1 UNL1     0.0348
     72 H         0.05372   2.543104   -2.610131 H        1 UNL1     0.0602
     73 H         -4.285588   0.953432   -0.616466 H        1 UNL1     0.0628
     74 H         -3.659781   3.958751   -0.423996 H        1 UNL1     0.1022
     75 H         -3.23235   0.855611   -12.053914 H        1 UNL1     0.0279
     76 H         -1.588871   1.246848   -11.738937 H        1 UNL1     0.0279
     77 H         -2.306767   -0.338608   -11.242698 H        1 UNL1     0.0279
     78 H         -4.238185   -0.844282   -9.943702 H        1 UNL1     0.1553
     79 H         -2.788688   -1.222867   -8.646838 H        1 UNL1     0.1484
     80 H         -2.409371   -2.638469   -5.140889 H        1 UNL1     0.0317
     81 H         -3.962812   -2.519484   -5.954885 H        1 UNL1     0.0317
     82 H         -2.936284   -3.204214   -8.139167 H        1 UNL1     0.0428
     83 H         -2.679284   -4.383134   -6.871964 H        1 UNL1     0.0428
     84 H         0.567314   -1.769773   -7.728167 H        1 UNL1     0.0428
     85 H         -0.852832   -1.572921   -8.694374 H        1 UNL1     0.0428
     86 H         -0.545135   0.019854   -6.79879 H        1 UNL1     0.0317
     87 H         -0.55722   -1.217008   -5.627304 H        1 UNL1     0.0317
     88 H         0.651937   -3.999435   -8.379872 H        1 UNL1     0.0429
     89 H         -0.322032   -5.223295   -7.561468 H        1 UNL1     0.0429
     90 H         -0.677756   -3.90201   -10.239247 H        1 UNL1     0.0308
     91 H         -1.411148   -6.620576   -9.027557 H        1 UNL1     0.0233
     92 H         -1.89548   -6.130863   -10.671059 H        1 UNL1     0.0233
     93 H         -0.201161   -6.297779   -10.263599 H        1 UNL1     0.0233
     94 H         -3.22503   -4.395156   -10.046425 H        1 UNL1     0.0233
     95 H         -2.956449   -4.158042   -8.312652 H        1 UNL1     0.0233
     96 H         -2.579154   -2.849695   -9.457147 H        1 UNL1     0.0233
     97 H         -9.471227   3.939464   -5.038918 H        1 UNL1     0.0280
     98 H         -10.069981   2.324118   -4.775601 H        1 UNL1     0.0280
     99 H         -9.079936   3.119579   -3.515926 H        1 UNL1     0.0280
     100 H         -9.327387   0.991119   -7.439933 H        1 UNL1     0.2922
     101 H         -0.111628   4.460419   -3.858831 H        1 UNL1     0.0236
     102 H         0.62033   4.21295   -5.492556 H        1 UNL1     0.0236
     103 H         1.432344   3.689936   -4.04944 H        1 UNL1     0.0236
     104 H         2.281169   2.004181   -2.821136 H        1 UNL1     0.2098
     105 H         0.241646   -0.630944   -1.59822 H        1 UNL1     0.0234
     106 H         1.584153   -0.384794   -0.445752 H        1 UNL1     0.0234
     107 H         0.0   0.0   0.0 H        1 UNL1     0.0234
     108 H         -0.810503   3.381296   -1.328541 H        1 UNL1     0.2098
     109 H         -3.295839   -0.8133   -0.48935 H        1 UNL1     0.0234
     110 H         -1.87099   0.10756   -1.067816 H        1 UNL1     0.0234
     111 H         -1.661684   -1.369305   -0.1938 H        1 UNL1     0.0234
     112 H         3.03826   -0.193275   3.23934 H        1 UNL1     0.0342
     113 H         1.652827   0.930287   3.476874 H        1 UNL1     0.0342
     114 H         1.651516   -0.662879   4.238313 H        1 UNL1     0.0342
     115 H         0.341055   3.661305   2.979738 H        1 UNL1     0.0234
     116 H         -1.330494   3.628563   2.409093 H        1 UNL1     0.0234
     117 H         -0.738523   2.560922   3.698806 H        1 UNL1     0.0234
     118 H         -6.107842   1.062784   -0.738852 H        1 UNL1     0.0309
     119 H         -7.141925   0.702342   -2.156179 H        1 UNL1     0.0309
     120 H         -5.497672   0.114048   -2.04438 H        1 UNL1     0.0309
     121 H         -2.441488   4.653968   1.166747 H        1 UNL1     0.0524
     122 H         -3.191347   3.716718   -0.131764 H        1 UNL1     0.0524
     123 H         -4.17158   4.228032   1.265177 H        1 UNL1     0.0524
@<TRIPOS>BOND
     1     1     2    1
     2     1    42    1
     3     2     3    2
     4     3     4    1
     5     4     5    2
     6     5     7    1
     7     6    75    1
     8     6    76    1
     9     6    77    1
    10     7     9   am
    11     9    10    1
    12    10    11    2
    13    10    43    1
    14    11    14    1
    15    11    15    1
    16    12    13   ar
    17    12    27   ar
    18    12    43    1
    19    13    14    1
    20    13    30   ar
    21    14    17    2
    22    15    16    1
    23    16    17    1
    24    16    18    1
    25    16    22    1
    26    18    19    1
    27    19    20    1
    28    20    21    1
    29    21    22    1
    30    23    24    1
    31    23    88    1
    32    23    89    1
    33    24    25    1
    34    24    26    1
    35    24    90    1
    36    25    91    1
    37    25    92    1
    38    25    93    1
    39    26    94    1
    40    26    95    1
    41    26    96    1
    42    27    28   ar
    43    28    29   ar
    44    29    30   ar
    45    29    31    1
    46    30    33    1
    47    31    32    1
    48    32    33    1
    49    32    35    1
    50    34    97    1
    51    34    98    1
    52    34    99    1
    53    35    61    1
    54    36    37    1
    55    36    60    1
    56    37    38    1
    57    38    39    1
    58    39    40    1
    59    40    41    1
    60    41    42    1
    61    45   100    1
    62    47   101    1
    63    47   102    1
    64    47   103    1
    65    48   104    1
    66    49   105    1
    67    49   106    1
    68    49   107    1
    69    50   108    1
    70    51    59    1
    71    52   109    1
    72    52   110    1
    73    52   111    1
    74    53    54    1
    75    54    55    2
    76    54    56    1
    77    56   112    1
    78    56   113    1
    79    56   114    1
    80    57   115    1
    81    57   116    1
    82    57   117    1
    83    58   118    1
    84    58   119    1
    85    58   120    1
    86    59   121    1
    87    59   122    1
    88    59   123    1
    89    60    61    2
    90     1    47    1
    91     1    62    1
    92     2    63    1
    93     3    64    1
    94     4    65    1
    95     5     6    1
    96     7     8    2
    97     9    78    1
    98    15    79    1
    99    18    80    1
   100    18    81    1
   101    19    82    1
   102    19    83    1
   103    20    23    1
   104    21    84    1
   105    21    85    1
   106    22    86    1
   107    22    87    1
   108    27    45    1
   109    28    34    1
   110    32    58    1
   111    33    46    2
   112    36    51    1
   113    36    66    1
   114    37    52    1
   115    37    67    1
   116    38    53    1
   117    38    68    1
   118    42    48    1
   119    42    72    1
   120    43    44    2
   121    60    73    1
   122    61    74    1
   123    39    69    1
   124    39    57    1
   125    40    70    1
   126    40    50    1
   127    41    71    1
   128    41    49    1
