@<TRIPOS>MOLECULE
*****
 123 128 0 0 0
SMALL
GASTEIGER

@<TRIPOS>ATOM
     1 C         -2.023674   3.366836   -1.770674 C.3        1 UNL1     0.0009
     2 C         -3.475929   4.307743   -1.105329 C.2        1 UNL1     -0.0787
     3 C         -4.882667   4.646392   -1.154845 C.2        1 UNL1     -0.0649
     4 C         -5.761561   5.602889   -0.069019 C.2        1 UNL1     -0.0542
     5 C         -7.054871   5.922371   0.413016 C.2        1 UNL1     0.0115
     6 C         -8.574728   5.72534   0.158976 C.3        1 UNL1     -0.0348
     7 C         -7.194067   6.673703   1.824793 C.2        1 UNL1     0.2441
     8 O         -7.423827   7.871369   1.92139 O.2        1 UNL1     -0.2702
     9 N         -7.294369   5.821401   2.938199 N.am        1 UNL1     -0.2772
     10 C         -6.04302   5.504841   3.414893 C.2        1 UNL1     0.1049
     11 C         -5.41774   4.518324   2.798427 C.2        1 UNL1     0.0801
     12 C         -3.858235   6.524071   4.08214 C.ar        1 UNL1     0.0753
     13 C         -3.236216   5.557329   3.229432 C.ar        1 UNL1     0.0305
     14 C         -3.988416   4.439844   2.663327 C.2        1 UNL1     0.0924
     15 N         -5.881639   3.623497   1.909265 N.pl3        1 UNL1     -0.3170
     16 C         -4.842304   2.656143   1.676322 C.3        1 UNL1     0.1275
     17 N         -3.560573   3.407101   1.94269 N.2        1 UNL1     -0.2557
     18 C         -4.951443   1.602038   2.773889 C.3        1 UNL1     0.0016
     19 C         -6.358958   1.027374   2.758048 C.3        1 UNL1     0.0026
     20 N         -6.61236   0.446602   1.446743 N.3        1 UNL1     -0.3018
     21 C         -6.470542   1.370611   0.319595 C.3        1 UNL1     0.0026
     22 C         -5.048131   1.932374   0.352184 C.3        1 UNL1     0.0016
     23 C         -7.79898   -0.385116   1.418091 C.3        1 UNL1     0.0012
     24 C         -7.459313   -1.790364   0.89688 C.3        1 UNL1     -0.0339
     25 C         -7.012923   -2.720354   2.037016 C.3        1 UNL1     -0.0615
     26 C         -8.643081   -2.364599   0.138112 C.3        1 UNL1     -0.0615
     27 C         -3.111504   7.515391   4.714434 C.ar        1 UNL1     0.1347
     28 C         -1.736242   7.616163   4.602411 C.ar        1 UNL1     0.0342
     29 C         -1.151576   6.683872   3.719142 C.ar        1 UNL1     0.1435
     30 C         -1.891643   5.707865   3.050613 C.ar        1 UNL1     0.0774
     31 O         0.189112   6.582631   3.587564 O.3        1 UNL1     -0.4436
     32 C         0.400394   5.282093   3.017623 C.3        1 UNL1     0.3143
     33 C         -0.903214   4.935634   2.327126 C.2        1 UNL1     0.2504
     34 C         -0.844783   8.488248   5.441975 C.3        1 UNL1     -0.0327
     35 O         1.391287   5.422296   1.992086 O.2        1 UNL1     -0.4528
     36 C         3.229691   2.103998   1.860711 C.3        1 UNL1     0.0854
     37 C         2.655266   0.655787   1.615265 C.3        1 UNL1     0.0236
     38 C         3.337072   -0.145576   0.405016 C.3        1 UNL1     0.1131
     39 C         3.469487   0.53973   -1.014523 C.3        1 UNL1     0.0200
     40 C         2.195553   1.403115   -1.658027 C.3        1 UNL1     0.0661
     41 C         0.589816   0.868227   -1.77254 C.3        1 UNL1     0.0091
     42 C         -0.985357   1.804729   -1.687714 C.3        1 UNL1     0.0661
     43 C         -5.312349   6.381702   4.342032 C.2        1 UNL1     0.2131
     44 O         -5.87292   6.860605   5.311129 O.2        1 UNL1     -0.2851
     45 O         -3.799972   8.444964   5.491185 O.3        1 UNL1     -0.5056
     46 O         -1.082588   4.204257   1.379093 O.2        1 UNL1     -0.2836
     47 C         -1.535085   3.99947   -3.101478 C.3        1 UNL1     -0.0566
     48 O         -1.567825   1.156032   -2.887314 O.3        1 UNL1     -0.3909
     49 C         0.421034   -0.358619   -0.904291 C.3        1 UNL1     -0.0577
     50 O         2.2273   2.745986   -1.218237 O.3        1 UNL1     -0.3910
     51 O         4.136559   2.579438   0.891702 O.3        1 UNL1     -0.3753
     52 C         1.119407   0.583157   1.899538 C.3        1 UNL1     -0.0564
     53 O         3.03379   -1.615373   0.411592 O.3        1 UNL1     -0.4608
     54 C         1.827637   -2.176899   0.73994 C.2        1 UNL1     0.3042
     55 O         1.190804   -3.008873   0.09488 O.2        1 UNL1     -0.2512
     56 C         1.299358   -1.730122   2.073367 C.3        1 UNL1     0.0332
     57 C         4.929149   1.187593   -1.10303 C.3        1 UNL1     -0.0567
     58 C         0.609136   4.313015   4.20457 C.3        1 UNL1     0.0210
     59 C         4.099271   1.886677   -0.355117 C.3        1 UNL1     0.0372
     60 C         2.202405   3.165171   2.044441 C.2        1 UNL1     -0.0208
     61 C         2.125986   4.392857   1.528987 C.2        1 UNL1     0.0882
     62 H         -1.404582   3.796661   -0.974001 H        1 UNL1     0.0365
     63 H         -2.991709   4.911504   -0.334956 H        1 UNL1     0.0576
     64 H         -5.566065   4.153146   -1.84967 H        1 UNL1     0.0615
     65 H         -4.989321   6.105889   0.519299 H        1 UNL1     0.0622
     66 H         3.762198   2.030896   2.819428 H        1 UNL1     0.0645
     67 H         3.006241   0.076841   2.487158 H        1 UNL1     0.0362
     68 H         4.365515   -0.220187   0.790064 H        1 UNL1     0.0741
     69 H         3.634678   -0.228704   -1.757914 H        1 UNL1     0.0359
     70 H         2.513513   1.451315   -2.717101 H        1 UNL1     0.0600
     71 H         0.607952   0.417364   -2.784148 H        1 UNL1     0.0348
     72 H         -0.205036   2.544157   -1.919364 H        1 UNL1     0.0602
     73 H         1.518867   2.862751   2.798474 H        1 UNL1     0.0628
     74 H         2.750453   4.759228   0.713481 H        1 UNL1     0.1022
     75 H         -9.087191   5.38561   1.091177 H        1 UNL1     0.0279
     76 H         -9.141075   6.614458   -0.10896 H        1 UNL1     0.0279
     77 H         -8.787021   4.888481   -0.522419 H        1 UNL1     0.0279
     78 H         -7.746606   4.951814   2.66365 H        1 UNL1     0.1553
     79 H         -6.855423   3.416095   1.784112 H        1 UNL1     0.1484
     80 H         -4.199047   0.823712   2.598179 H        1 UNL1     0.0317
     81 H         -4.731166   2.035021   3.755549 H        1 UNL1     0.0317
     82 H         -7.112607   1.789295   3.005843 H        1 UNL1     0.0428
     83 H         -6.415377   0.279287   3.549396 H        1 UNL1     0.0428
     84 H         -6.58754   0.891746   -0.65755 H        1 UNL1     0.0428
     85 H         -7.245512   2.149482   0.329513 H        1 UNL1     0.0428
     86 H         -4.938726   2.49644   -0.555476 H        1 UNL1     0.0317
     87 H         -4.321354   1.119277   0.234856 H        1 UNL1     0.0317
     88 H         -8.177779   -0.4752   2.444585 H        1 UNL1     0.0429
     89 H         -8.59549   0.076968   0.820743 H        1 UNL1     0.0429
     90 H         -6.643888   -1.715619   0.167696 H        1 UNL1     0.0308
     91 H         -6.110671   -3.27686   1.766193 H        1 UNL1     0.0233
     92 H         -6.822075   -2.149565   2.948819 H        1 UNL1     0.0233
     93 H         -7.778622   -3.461925   2.295112 H        1 UNL1     0.0233
     94 H         -9.103008   -3.175456   0.713277 H        1 UNL1     0.0233
     95 H         -9.399286   -1.589838   -0.016355 H        1 UNL1     0.0233
     96 H         -8.339304   -2.760378   -0.835051 H        1 UNL1     0.0233
     97 H         -0.097393   7.910767   5.977843 H        1 UNL1     0.0280
     98 H         -0.28644   9.213974   4.836309 H        1 UNL1     0.0280
     99 H         -1.453295   9.035649   6.180325 H        1 UNL1     0.0280
     100 H         -3.887212   9.295594   5.098196 H        1 UNL1     0.2922
     101 H         -1.331771   5.059613   -2.951754 H        1 UNL1     0.0236
     102 H         -2.216877   3.827325   -3.933649 H        1 UNL1     0.0236
     103 H         -0.573284   3.574236   -3.433604 H        1 UNL1     0.0236
     104 H         -2.300027   0.582987   -2.586532 H        1 UNL1     0.2098
     105 H         -0.253614   -1.10757   -1.311395 H        1 UNL1     0.0234
     106 H         1.354224   -0.823561   -0.586624 H        1 UNL1     0.0234
     107 H         0.0   0.0   0.0 H        1 UNL1     0.0234
     108 H         1.619455   3.253027   -1.790252 H        1 UNL1     0.2098
     109 H         0.55489   1.33425   1.329544 H        1 UNL1     0.0234
     110 H         0.694598   -0.409987   1.71803 H        1 UNL1     0.0234
     111 H         0.893583   0.780262   2.955994 H        1 UNL1     0.0234
     112 H         0.391597   -2.289012   2.320262 H        1 UNL1     0.0342
     113 H         2.044067   -1.82634   2.862033 H        1 UNL1     0.0342
     114 H         1.030429   -0.66755   1.997329 H        1 UNL1     0.0342
     115 H         5.486194   0.821483   -1.976444 H        1 UNL1     0.0234
     116 H         4.92871   2.278496   -1.147524 H        1 UNL1     0.0234
     117 H         5.597349   0.880582   -0.280111 H        1 UNL1     0.0234
     118 H         -0.08246   3.45331   4.164469 H        1 UNL1     0.0309
     119 H         1.636434   3.942962   4.281532 H        1 UNL1     0.0309
     120 H         0.380514   4.776223   5.170633 H        1 UNL1     0.0309
     121 H         3.208419   2.216419   -0.888981 H        1 UNL1     0.0524
     122 H         4.971187   2.118963   -0.989029 H        1 UNL1     0.0524
     123 H         4.060585   0.813976   -0.188057 H        1 UNL1     0.0524
@<TRIPOS>BOND
     1     1     2    1
     2     1    42    1
     3     2     3    2
     4     3     4    1
     5     4     5    2
     6     5     7    1
     7     6    75    1
     8     6    76    1
     9     6    77    1
    10     7     9   am
    11     9    10    1
    12    10    11    2
    13    10    43    1
    14    11    14    1
    15    11    15    1
    16    12    13   ar
    17    12    27   ar
    18    12    43    1
    19    13    14    1
    20    13    30   ar
    21    14    17    2
    22    15    16    1
    23    16    17    1
    24    16    18    1
    25    16    22    1
    26    18    19    1
    27    19    20    1
    28    20    21    1
    29    21    22    1
    30    23    24    1
    31    23    88    1
    32    23    89    1
    33    24    25    1
    34    24    26    1
    35    24    90    1
    36    25    91    1
    37    25    92    1
    38    25    93    1
    39    26    94    1
    40    26    95    1
    41    26    96    1
    42    27    28   ar
    43    28    29   ar
    44    29    30   ar
    45    29    31    1
    46    30    33    1
    47    31    32    1
    48    32    33    1
    49    32    35    1
    50    34    97    1
    51    34    98    1
    52    34    99    1
    53    35    61    1
    54    36    37    1
    55    36    60    1
    56    37    38    1
    57    38    39    1
    58    39    40    1
    59    40    41    1
    60    41    42    1
    61    45   100    1
    62    47   101    1
    63    47   102    1
    64    47   103    1
    65    48   104    1
    66    49   105    1
    67    49   106    1
    68    49   107    1
    69    50   108    1
    70    51    59    1
    71    52   109    1
    72    52   110    1
    73    52   111    1
    74    53    54    1
    75    54    55    2
    76    54    56    1
    77    56   112    1
    78    56   113    1
    79    56   114    1
    80    57   115    1
    81    57   116    1
    82    57   117    1
    83    58   118    1
    84    58   119    1
    85    58   120    1
    86    59   121    1
    87    59   122    1
    88    59   123    1
    89    60    61    2
    90     1    47    1
    91     1    62    1
    92     2    63    1
    93     3    64    1
    94     4    65    1
    95     5     6    1
    96     7     8    2
    97     9    78    1
    98    15    79    1
    99    18    80    1
   100    18    81    1
   101    19    82    1
   102    19    83    1
   103    20    23    1
   104    21    84    1
   105    21    85    1
   106    22    86    1
   107    22    87    1
   108    27    45    1
   109    28    34    1
   110    32    58    1
   111    33    46    2
   112    36    51    1
   113    36    66    1
   114    37    52    1
   115    37    67    1
   116    38    53    1
   117    38    68    1
   118    42    48    1
   119    42    72    1
   120    43    44    2
   121    60    73    1
   122    61    74    1
   123    39    69    1
   124    39    57    1
   125    40    70    1
   126    40    50    1
   127    41    71    1
   128    41    49    1
