@<TRIPOS>MOLECULE
*****
 123 128 0 0 0
SMALL
GASTEIGER

@<TRIPOS>ATOM
     1 C         3.864628   -0.662756   1.593187 C.3        1 UNL1     0.0009
     2 C         4.508846   -0.139212   3.250873 C.2        1 UNL1     -0.0787
     3 C         5.325174   0.740661   4.060489 C.2        1 UNL1     -0.0649
     4 C         5.42983   0.801925   5.749172 C.2        1 UNL1     -0.0542
     5 C         5.802286   1.596634   6.861284 C.2        1 UNL1     0.0115
     6 C         6.524158   2.905284   7.285146 C.3        1 UNL1     -0.0348
     7 C         5.24556   1.207139   8.315704 C.2        1 UNL1     0.2441
     8 O         5.922944   0.62949   9.154751 O.2        1 UNL1     -0.2702
     9 N         4.018369   1.802688   8.655521 N.am        1 UNL1     -0.2772
     10 C         2.970239   1.0222   8.224726 C.2        1 UNL1     0.1049
     11 C         2.616583   1.168686   6.960728 C.2        1 UNL1     0.0801
     12 C         2.112982   -1.327776   8.232363 C.ar        1 UNL1     0.0753
     13 C         1.942712   -1.187142   6.818207 C.ar        1 UNL1     0.0305
     14 C         2.065709   0.110582   6.158027 C.2        1 UNL1     0.0924
     15 N         2.972345   2.107864   6.067472 N.pl3        1 UNL1     -0.3170
     16 C         2.175428   1.914157   4.885248 C.3        1 UNL1     0.1275
     17 N         1.846228   0.44129   4.888622 N.2        1 UNL1     -0.2557
     18 C         0.85395   2.643954   5.106147 C.3        1 UNL1     0.0016
     19 C         1.150548   4.099131   5.431844 C.3        1 UNL1     0.0026
     20 N         1.89351   4.684314   4.324326 N.3        1 UNL1     -0.3018
     21 C         3.151971   4.011598   3.995544 C.3        1 UNL1     0.0026
     22 C         2.829913   2.552691   3.667269 C.3        1 UNL1     0.0016
     23 C         1.966203   6.130102   4.395436 C.3        1 UNL1     0.0012
     24 C         0.993346   6.666741   5.457191 C.3        1 UNL1     -0.0339
     25 C         -0.235501   5.754711   5.606169 C.3        1 UNL1     -0.0615
     26 C         1.716254   6.851199   6.780126 C.3        1 UNL1     -0.0615
     27 C         1.87585   -2.542924   8.870565 C.ar        1 UNL1     0.1347
     28 C         1.428454   -3.672356   8.208545 C.ar        1 UNL1     0.0342
     29 C         1.314879   -3.523891   6.809895 C.ar        1 UNL1     0.1435
     30 C         1.583765   -2.322939   6.152146 C.ar        1 UNL1     0.0774
     31 O         0.786692   -4.498895   6.038277 O.3        1 UNL1     -0.4436
     32 C         0.404482   -3.833944   4.824758 C.3        1 UNL1     0.3143
     33 C         1.269963   -2.591568   4.764294 C.2        1 UNL1     0.2504
     34 C         0.914963   -4.928353   8.85577 C.3        1 UNL1     -0.0327
     35 O         0.803787   -4.674009   3.734759 O.2        1 UNL1     -0.4528
     36 C         -1.68152   -4.009117   0.943835 C.3        1 UNL1     0.0854
     37 C         -2.045877   -2.646642   0.23784 C.3        1 UNL1     0.0236
     38 C         -1.892547   -2.650441   -1.358474 C.3        1 UNL1     0.1131
     39 C         -0.547664   -3.160462   -2.016834 C.3        1 UNL1     0.0200
     40 C         0.927737   -2.703999   -1.386537 C.3        1 UNL1     0.0661
     41 C         1.401527   -1.118257   -1.014308 C.3        1 UNL1     0.0091
     42 C         2.516352   -0.486488   0.29849 C.3        1 UNL1     0.0661
     43 C         2.464046   -0.113463   9.009832 C.2        1 UNL1     0.2131
     44 O         2.259128   0.003465   10.204434 O.2        1 UNL1     -0.2851
     45 O         2.1092   -2.607239   10.242734 O.3        1 UNL1     -0.5056
     46 O         1.636432   -1.975264   3.78873 O.2        1 UNL1     -0.2836
     47 C         4.965529   -1.417697   0.800682 C.3        1 UNL1     -0.0566
     48 O         3.281037   0.395073   -0.616509 O.3        1 UNL1     -0.3909
     49 C         0.177852   -0.229389   -1.019494 C.3        1 UNL1     -0.0577
     50 O         1.324201   -3.582082   -0.352367 O.3        1 UNL1     -0.3910
     51 O         -1.105628   -4.996071   0.118184 O.3        1 UNL1     -0.3753
     52 C         -1.639971   -1.413201   1.108939 C.3        1 UNL1     -0.0564
     53 O         -2.56633   -1.489254   -2.029285 O.3        1 UNL1     -0.4608
     54 C         -3.191806   -1.528559   -3.247959 C.2        1 UNL1     0.3042
     55 O         -2.716708   -1.902385   -4.319581 O.2        1 UNL1     -0.2512
     56 C         -4.633396   -1.109009   -3.19786 C.3        1 UNL1     0.0332
     57 C         -0.751003   -4.70044   -2.39801 C.3        1 UNL1     -0.0567
     58 C         -1.070476   -3.406079   5.006311 C.3        1 UNL1     0.0210
     59 C         -2.011393   -6.000462   -0.336406 C.3        1 UNL1     0.0372
     60 C         -0.80312   -3.883014   2.138687 C.2        1 UNL1     -0.0208
     61 C         0.269241   -4.588093   2.501525 C.2        1 UNL1     0.0882
     62 H         3.257742   -1.427947   2.092068 H        1 UNL1     0.0365
     63 H         4.072624   -0.908782   3.89114 H        1 UNL1     0.0576
     64 H         5.85108   1.59398   3.626464 H        1 UNL1     0.0615
     65 H         4.948752   -0.124688   6.07388 H        1 UNL1     0.0622
     66 H         -2.642096   -4.393083   1.315198 H        1 UNL1     0.0645
     67 H         -3.141032   -2.569529   0.352949 H        1 UNL1     0.0362
     68 H         -2.648389   -3.408663   -1.614062 H        1 UNL1     0.0741
     69 H         -0.495809   -2.791897   -3.032649 H        1 UNL1     0.0359
     70 H         1.586841   -2.963004   -2.23716 H        1 UNL1     0.0600
     71 H         1.882548   -0.830915   -1.969824 H        1 UNL1     0.0348
     72 H         2.754613   -1.554168   0.186204 H        1 UNL1     0.0602
     73 H         -1.223986   -3.174753   2.808378 H        1 UNL1     0.0628
     74 H         0.794433   -5.289708   1.852566 H        1 UNL1     0.1022
     75 H         6.674104   2.9296   8.391473 H        1 UNL1     0.0279
     76 H         7.534903   3.045595   6.908614 H        1 UNL1     0.0279
     77 H         5.905556   3.801445   7.130461 H        1 UNL1     0.0279
     78 H         3.937302   2.706319   8.19405 H        1 UNL1     0.1553
     79 H         3.36354   2.9968   6.319845 H        1 UNL1     0.1484
     80 H         0.239825   2.553004   4.202076 H        1 UNL1     0.0317
     81 H         0.283819   2.183264   5.920005 H        1 UNL1     0.0317
     82 H         1.70404   4.200146   6.377019 H        1 UNL1     0.0428
     83 H         0.194785   4.600512   5.587361 H        1 UNL1     0.0428
     84 H         3.650124   4.420914   3.111172 H        1 UNL1     0.0428
     85 H         3.896161   4.12259   4.796281 H        1 UNL1     0.0428
     86 H         3.747658   2.128083   3.304724 H        1 UNL1     0.0317
     87 H         2.165458   2.502529   2.796016 H        1 UNL1     0.0317
     88 H         2.988097   6.406803   4.68606 H        1 UNL1     0.0429
     89 H         1.775312   6.587611   3.41614 H        1 UNL1     0.0429
     90 H         0.652794   7.665735   5.160125 H        1 UNL1     0.0308
     91 H         0.045671   4.698234   5.56257 H        1 UNL1     0.0233
     92 H         -0.749597   5.950349   6.550118 H        1 UNL1     0.0233
     93 H         -0.976422   5.919647   4.814546 H        1 UNL1     0.0233
     94 H         1.361793   7.758613   7.280919 H        1 UNL1     0.0233
     95 H         1.513424   6.001755   7.438356 H        1 UNL1     0.0233
     96 H         2.796996   6.935823   6.635891 H        1 UNL1     0.0233
     97 H         1.428693   -5.146004   9.787403 H        1 UNL1     0.0280
     98 H         -0.150716   -4.857123   9.109758 H        1 UNL1     0.0280
     99 H         1.060926   -5.781499   8.173178 H        1 UNL1     0.0280
     100 H         1.563705   -2.040769   10.759619 H        1 UNL1     0.2922
     101 H         5.948261   -1.050824   1.096146 H        1 UNL1     0.0236
     102 H         4.821174   -1.376842   -0.278427 H        1 UNL1     0.0236
     103 H         4.984633   -2.493813   1.0411 H        1 UNL1     0.0236
     104 H         3.998385   -0.139347   -1.009928 H        1 UNL1     0.2098
     105 H         0.30628   0.708467   -1.554045 H        1 UNL1     0.0234
     106 H         -0.741405   -0.721918   -1.336209 H        1 UNL1     0.0234
     107 H         -0.0   0.0   0.0 H        1 UNL1     0.0234
     108 H         1.7733   -3.044655   0.328258 H        1 UNL1     0.2098
     109 H         -2.191549   -0.505396   0.827224 H        1 UNL1     0.0234
     110 H         -1.750808   -1.590453   2.184132 H        1 UNL1     0.0234
     111 H         -0.57713   -1.164688   0.988286 H        1 UNL1     0.0234
     112 H         -4.966567   -0.802308   -4.193992 H        1 UNL1     0.0342
     113 H         -5.274126   -1.892228   -2.795521 H        1 UNL1     0.0342
     114 H         -4.714395   -0.23826   -2.532729 H        1 UNL1     0.0342
     115 H         -1.71014   -5.089265   -2.029146 H        1 UNL1     0.0234
     116 H         -0.70535   -4.902198   -3.470044 H        1 UNL1     0.0234
     117 H         -0.038998   -5.376184   -1.893669 H        1 UNL1     0.0234
     118 H         -1.159609   -2.432667   5.519664 H        1 UNL1     0.0309
     119 H         -1.625327   -3.365942   4.063585 H        1 UNL1     0.0309
     120 H         -1.628609   -4.08728   5.657893 H        1 UNL1     0.0309
     121 H         -2.997377   -5.758903   0.059627 H        1 UNL1     0.0524
     122 H         -2.092031   -6.024427   -1.435934 H        1 UNL1     0.0524
     123 H         -1.695472   -6.978498   0.015352 H        1 UNL1     0.0524
@<TRIPOS>BOND
     1     1     2    1
     2     1    42    1
     3     2     3    2
     4     3     4    1
     5     4     5    2
     6     5     7    1
     7     6    75    1
     8     6    76    1
     9     6    77    1
    10     7     9   am
    11     9    10    1
    12    10    11    2
    13    10    43    1
    14    11    14    1
    15    11    15    1
    16    12    13   ar
    17    12    27   ar
    18    12    43    1
    19    13    14    1
    20    13    30   ar
    21    14    17    2
    22    15    16    1
    23    16    17    1
    24    16    18    1
    25    16    22    1
    26    18    19    1
    27    19    20    1
    28    20    21    1
    29    21    22    1
    30    23    24    1
    31    23    88    1
    32    23    89    1
    33    24    25    1
    34    24    26    1
    35    24    90    1
    36    25    91    1
    37    25    92    1
    38    25    93    1
    39    26    94    1
    40    26    95    1
    41    26    96    1
    42    27    28   ar
    43    28    29   ar
    44    29    30   ar
    45    29    31    1
    46    30    33    1
    47    31    32    1
    48    32    33    1
    49    32    35    1
    50    34    97    1
    51    34    98    1
    52    34    99    1
    53    35    61    1
    54    36    37    1
    55    36    60    1
    56    37    38    1
    57    38    39    1
    58    39    40    1
    59    40    41    1
    60    41    42    1
    61    45   100    1
    62    47   101    1
    63    47   102    1
    64    47   103    1
    65    48   104    1
    66    49   105    1
    67    49   106    1
    68    49   107    1
    69    50   108    1
    70    51    59    1
    71    52   109    1
    72    52   110    1
    73    52   111    1
    74    53    54    1
    75    54    55    2
    76    54    56    1
    77    56   112    1
    78    56   113    1
    79    56   114    1
    80    57   115    1
    81    57   116    1
    82    57   117    1
    83    58   118    1
    84    58   119    1
    85    58   120    1
    86    59   121    1
    87    59   122    1
    88    59   123    1
    89    60    61    2
    90     1    47    1
    91     1    62    1
    92     2    63    1
    93     3    64    1
    94     4    65    1
    95     5     6    1
    96     7     8    2
    97     9    78    1
    98    15    79    1
    99    18    80    1
   100    18    81    1
   101    19    82    1
   102    19    83    1
   103    20    23    1
   104    21    84    1
   105    21    85    1
   106    22    86    1
   107    22    87    1
   108    27    45    1
   109    28    34    1
   110    32    58    1
   111    33    46    2
   112    36    51    1
   113    36    66    1
   114    37    52    1
   115    37    67    1
   116    38    53    1
   117    38    68    1
   118    42    48    1
   119    42    72    1
   120    43    44    2
   121    60    73    1
   122    61    74    1
   123    39    69    1
   124    39    57    1
   125    40    70    1
   126    40    50    1
   127    41    71    1
   128    41    49    1
