@<TRIPOS>MOLECULE
*****
 123 128 0 0 0
SMALL
GASTEIGER

@<TRIPOS>ATOM
     1 C         5.167601   1.747053   0.492932 C.3        1 UNL1     0.0009
     2 C         6.604705   2.553014   -0.356888 C.2        1 UNL1     -0.0787
     3 C         7.886688   2.454665   -1.022391 C.2        1 UNL1     -0.0649
     4 C         8.764664   3.689779   -1.777379 C.2        1 UNL1     -0.0542
     5 C         9.784968   3.982434   -2.715681 C.2        1 UNL1     0.0115
     6 C         10.91315   3.356941   -3.581295 C.3        1 UNL1     -0.0348
     7 C         9.88088   5.465868   -3.321663 C.2        1 UNL1     0.2441
     8 O         10.704937   6.287136   -2.943544 O.2        1 UNL1     -0.2702
     9 N         9.130957   5.673461   -4.49242 N.am        1 UNL1     -0.2772
     10 C         7.848297   6.060425   -4.178792 C.2        1 UNL1     0.1049
     11 C         7.002157   5.089171   -3.887359 C.2        1 UNL1     0.0801
     12 C         6.550109   7.666992   -2.767769 C.ar        1 UNL1     0.0753
     13 C         5.790618   6.539155   -2.320816 C.ar        1 UNL1     0.0305
     14 C         5.907282   5.233639   -2.966623 C.2        1 UNL1     0.0924
     15 N         7.124405   3.76021   -4.046875 N.pl3        1 UNL1     -0.3170
     16 C         5.8543   3.161319   -3.733159 C.3        1 UNL1     0.1275
     17 N         5.217993   4.116414   -2.753041 N.2        1 UNL1     -0.2557
     18 C         5.001724   3.221079   -4.996981 C.3        1 UNL1     0.0016
     19 C         5.756624   2.53714   -6.125672 C.3        1 UNL1     0.0026
     20 N         6.026269   1.158825   -5.740226 N.3        1 UNL1     -0.3018
     21 C         6.789328   0.997778   -4.500801 C.3        1 UNL1     0.0026
     22 C         6.010567   1.688154   -3.379728 C.3        1 UNL1     0.0016
     23 C         6.47075   0.339529   -6.850107 C.3        1 UNL1     0.0012
     24 C         5.315427   0.090738   -7.832496 C.3        1 UNL1     -0.0339
     25 C         5.341521   1.094304   -8.997069 C.3        1 UNL1     -0.0615
     26 C         5.354485   -1.343812   -8.329809 C.3        1 UNL1     -0.0615
     27 C         6.345726   8.934565   -2.227765 C.ar        1 UNL1     0.1347
     28 C         5.386557   9.20408   -1.267866 C.ar        1 UNL1     0.0342
     29 C         4.684558   8.069688   -0.807957 C.ar        1 UNL1     0.1435
     30 C         4.903712   6.787765   -1.313788 C.ar        1 UNL1     0.0774
     31 O         3.643431   8.183284   0.045364 O.3        1 UNL1     -0.4436
     32 C         2.921406   6.950732   -0.097355 C.3        1 UNL1     0.3143
     33 C         3.934506   5.957497   -0.629638 C.2        1 UNL1     0.2504
     34 C         4.940047   10.570172   -0.826819 C.3        1 UNL1     -0.0327
     35 O         2.560377   6.5137   1.218667 O.2        1 UNL1     -0.4528
     36 C         -0.683179   4.582635   0.820651 C.3        1 UNL1     0.0854
     37 C         -0.988694   3.322443   -0.07718 C.3        1 UNL1     0.0236
     38 C         -1.589787   2.06132   0.71022 C.3        1 UNL1     0.1131
     39 C         -0.864444   1.529731   2.011589 C.3        1 UNL1     0.0200
     40 C         0.796696   1.383666   2.053031 C.3        1 UNL1     0.0661
     41 C         1.756057   0.614932   0.884149 C.3        1 UNL1     0.0091
     42 C         3.463864   0.977155   0.320595 C.3        1 UNL1     0.0661
     43 C         7.500304   7.459371   -3.888609 C.2        1 UNL1     0.2131
     44 O         7.9006   8.357564   -4.606766 O.2        1 UNL1     -0.2851
     45 O         7.158397   9.969576   -2.685757 O.3        1 UNL1     -0.5056
     46 O         3.950103   4.753914   -0.499254 O.2        1 UNL1     -0.2836
     47 C         5.563555   1.316982   1.93107 C.3        1 UNL1     -0.0566
     48 O         3.911981   -0.434114   0.402004 O.3        1 UNL1     -0.3909
     49 C         0.922037   0.383003   -0.356057 C.3        1 UNL1     -0.0577
     50 O         1.397192   2.601217   2.446349 O.3        1 UNL1     -0.3910
     51 O         -0.807592   4.392544   2.211988 O.3        1 UNL1     -0.3753
     52 C         0.055932   3.162028   -1.229557 C.3        1 UNL1     -0.0564
     53 O         -2.192536   1.022814   -0.190072 O.3        1 UNL1     -0.4608
     54 C         -2.427411   -0.283977   0.149137 C.2        1 UNL1     0.3042
     55 O         -1.858791   -1.283164   -0.289195 O.2        1 UNL1     -0.2512
     56 C         -3.467308   -0.449622   1.220533 C.3        1 UNL1     0.0332
     57 C         -1.585506   2.198537   3.272915 C.3        1 UNL1     -0.0567
     58 C         1.846492   7.196504   -1.181645 C.3        1 UNL1     0.0210
     59 C         -1.120567   5.571405   2.952392 C.3        1 UNL1     0.0372
     60 C         0.646053   5.211385   0.59049 C.2        1 UNL1     -0.0208
     61 C         1.558958   5.646057   1.460208 C.2        1 UNL1     0.0882
     62 H         4.691967   2.731343   0.580427 H        1 UNL1     0.0365
     63 H         6.338762   3.606862   -0.251294 H        1 UNL1     0.0576
     64 H         8.344086   1.487745   -1.243664 H        1 UNL1     0.0615
     65 H         8.277798   4.605214   -1.430358 H        1 UNL1     0.0622
     66 H         -1.427542   5.329491   0.510529 H        1 UNL1     0.0645
     67 H         -1.854032   3.632271   -0.688535 H        1 UNL1     0.0362
     68 H         -2.536788   2.498375   1.061921 H        1 UNL1     0.0741
     69 H         -1.196314   0.518673   2.206605 H        1 UNL1     0.0359
     70 H         0.908105   0.723019   2.934049 H        1 UNL1     0.0600
     71 H         1.799246   -0.406384   1.310773 H        1 UNL1     0.0348
     72 H         3.357952   1.46508   1.300405 H        1 UNL1     0.0602
     73 H         0.764201   5.408929   -0.445978 H        1 UNL1     0.0628
     74 H         1.54115   5.435057   2.529974 H        1 UNL1     0.1022
     75 H         10.957262   2.2516   -3.428621 H        1 UNL1     0.0279
     76 H         10.799742   3.440109   -4.659854 H        1 UNL1     0.0279
     77 H         11.918259   3.661231   -3.254393 H        1 UNL1     0.0279
     78 H         9.068784   4.803698   -5.017515 H        1 UNL1     0.1553
     79 H         7.789656   3.332209   -4.66428 H        1 UNL1     0.1484
     80 H         4.040256   2.73038   -4.803177 H        1 UNL1     0.0317
     81 H         4.775486   4.257988   -5.267697 H        1 UNL1     0.0317
     82 H         6.687497   3.068233   -6.373319 H        1 UNL1     0.0428
     83 H         5.131652   2.592759   -7.017505 H        1 UNL1     0.0428
     84 H         6.909269   -0.045309   -4.19194 H        1 UNL1     0.0428
     85 H         7.819553   1.365525   -4.604315 H        1 UNL1     0.0428
     86 H         6.526747   1.437345   -2.47163 H        1 UNL1     0.0317
     87 H         5.030951   1.210781   -3.254968 H        1 UNL1     0.0317
     88 H         7.267077   0.881246   -7.37708 H        1 UNL1     0.0429
     89 H         6.902989   -0.606488   -6.499399 H        1 UNL1     0.0429
     90 H         4.362501   0.197574   -7.30077 H        1 UNL1     0.0308
     91 H         6.291712   1.051453   -9.537813 H        1 UNL1     0.0233
     92 H         4.523155   0.898735   -9.693947 H        1 UNL1     0.0233
     93 H         5.214343   2.129835   -8.658932 H        1 UNL1     0.0233
     94 H         4.659465   -1.47253   -9.166597 H        1 UNL1     0.0233
     95 H         6.359239   -1.588775   -8.685369 H        1 UNL1     0.0233
     96 H         5.078254   -2.047705   -7.539747 H        1 UNL1     0.0233
     97 H         4.144454   10.520448   -0.089398 H        1 UNL1     0.0280
     98 H         5.752089   11.138658   -0.354943 H        1 UNL1     0.0280
     99 H         4.569635   11.13622   -1.697153 H        1 UNL1     0.0280
     100 H         6.691651   10.720169   -3.008837 H        1 UNL1     0.2922
     101 H         4.700517   0.883451   2.435918 H        1 UNL1     0.0236
     102 H         6.014479   2.122008   2.510366 H        1 UNL1     0.0236
     103 H         6.319558   0.514081   1.929857 H        1 UNL1     0.0236
     104 H         4.331318   -0.560503   1.275591 H        1 UNL1     0.2098
     105 H         0.70977   1.282077   -0.929136 H        1 UNL1     0.0234
     106 H         1.291302   -0.404929   -1.01236 H        1 UNL1     0.0234
     107 H         0.0   -0.0   0.0 H        1 UNL1     0.0234
     108 H         1.199569   3.25956   1.752594 H        1 UNL1     0.2098
     109 H         1.080664   3.048121   -0.849212 H        1 UNL1     0.0234
     110 H         -0.176641   2.33521   -1.909281 H        1 UNL1     0.0234
     111 H         0.077512   4.045037   -1.882073 H        1 UNL1     0.0234
     112 H         -3.600196   -1.511411   1.449204 H        1 UNL1     0.0342
     113 H         -3.223697   0.115957   2.118652 H        1 UNL1     0.0342
     114 H         -4.421825   -0.066248   0.834417 H        1 UNL1     0.0342
     115 H         -2.655213   1.950576   3.31075 H        1 UNL1     0.0234
     116 H         -1.149307   1.918347   4.233786 H        1 UNL1     0.0234
     117 H         -1.623759   3.300419   3.224619 H        1 UNL1     0.0234
     118 H         0.945492   7.683558   -0.769353 H        1 UNL1     0.0309
     119 H         2.216193   7.784635   -2.027592 H        1 UNL1     0.0309
     120 H         1.457713   6.264794   -1.606938 H        1 UNL1     0.0309
     121 H         -0.299279   6.274362   2.815669 H        1 UNL1     0.0524
     122 H         -2.040149   6.060839   2.590644 H        1 UNL1     0.0524
     123 H         -1.238801   5.333376   4.005699 H        1 UNL1     0.0524
@<TRIPOS>BOND
     1     1     2    1
     2     1    42    1
     3     2     3    2
     4     3     4    1
     5     4     5    2
     6     5     7    1
     7     6    75    1
     8     6    76    1
     9     6    77    1
    10     7     9   am
    11     9    10    1
    12    10    11    2
    13    10    43    1
    14    11    14    1
    15    11    15    1
    16    12    13   ar
    17    12    27   ar
    18    12    43    1
    19    13    14    1
    20    13    30   ar
    21    14    17    2
    22    15    16    1
    23    16    17    1
    24    16    18    1
    25    16    22    1
    26    18    19    1
    27    19    20    1
    28    20    21    1
    29    21    22    1
    30    23    24    1
    31    23    88    1
    32    23    89    1
    33    24    25    1
    34    24    26    1
    35    24    90    1
    36    25    91    1
    37    25    92    1
    38    25    93    1
    39    26    94    1
    40    26    95    1
    41    26    96    1
    42    27    28   ar
    43    28    29   ar
    44    29    30   ar
    45    29    31    1
    46    30    33    1
    47    31    32    1
    48    32    33    1
    49    32    35    1
    50    34    97    1
    51    34    98    1
    52    34    99    1
    53    35    61    1
    54    36    37    1
    55    36    60    1
    56    37    38    1
    57    38    39    1
    58    39    40    1
    59    40    41    1
    60    41    42    1
    61    45   100    1
    62    47   101    1
    63    47   102    1
    64    47   103    1
    65    48   104    1
    66    49   105    1
    67    49   106    1
    68    49   107    1
    69    50   108    1
    70    51    59    1
    71    52   109    1
    72    52   110    1
    73    52   111    1
    74    53    54    1
    75    54    55    2
    76    54    56    1
    77    56   112    1
    78    56   113    1
    79    56   114    1
    80    57   115    1
    81    57   116    1
    82    57   117    1
    83    58   118    1
    84    58   119    1
    85    58   120    1
    86    59   121    1
    87    59   122    1
    88    59   123    1
    89    60    61    2
    90     1    47    1
    91     1    62    1
    92     2    63    1
    93     3    64    1
    94     4    65    1
    95     5     6    1
    96     7     8    2
    97     9    78    1
    98    15    79    1
    99    18    80    1
   100    18    81    1
   101    19    82    1
   102    19    83    1
   103    20    23    1
   104    21    84    1
   105    21    85    1
   106    22    86    1
   107    22    87    1
   108    27    45    1
   109    28    34    1
   110    32    58    1
   111    33    46    2
   112    36    51    1
   113    36    66    1
   114    37    52    1
   115    37    67    1
   116    38    53    1
   117    38    68    1
   118    42    48    1
   119    42    72    1
   120    43    44    2
   121    60    73    1
   122    61    74    1
   123    39    69    1
   124    39    57    1
   125    40    70    1
   126    40    50    1
   127    41    71    1
   128    41    49    1
