@<TRIPOS>MOLECULE
*****
 123 128 0 0 0
SMALL
GASTEIGER

@<TRIPOS>ATOM
     1 C         5.166221   1.76061   0.457865 C.3        1 UNL1     0.0009
     2 C         6.595756   2.569395   -0.401981 C.2        1 UNL1     -0.0787
     3 C         7.873648   2.473654   -1.07568 C.2        1 UNL1     -0.0649
     4 C         8.743598   3.710271   -1.837469 C.2        1 UNL1     -0.0542
     5 C         9.757065   4.004619   -2.782626 C.2        1 UNL1     0.0115
     6 C         10.881196   3.381163   -3.654954 C.3        1 UNL1     -0.0348
     7 C         9.845308   5.487724   -3.390575 C.2        1 UNL1     0.2441
     8 O         10.66972   6.311417   -3.018552 O.2        1 UNL1     -0.2702
     9 N         9.087301   5.692337   -4.556641 N.am        1 UNL1     -0.2772
     10 C         7.805724   6.076363   -4.235068 C.2        1 UNL1     0.1049
     11 C         6.963943   5.103252   -3.937273 C.2        1 UNL1     0.0801
     12 C         6.512646   7.68097   -2.81714 C.ar        1 UNL1     0.0753
     13 C         5.758914   6.551641   -2.364246 C.ar        1 UNL1     0.0305
     14 C         5.87469   5.245821   -3.009599 C.2        1 UNL1     0.0924
     15 N         7.08851   3.774455   -4.09636 N.pl3        1 UNL1     -0.3170
     16 C         5.821978   3.172661   -3.773877 C.3        1 UNL1     0.1275
     17 N         5.18962   4.127064   -2.790535 N.2        1 UNL1     -0.2557
     18 C         4.961091   3.229095   -5.032206 C.3        1 UNL1     0.0016
     19 C         5.710393   2.546008   -6.165135 C.3        1 UNL1     0.0026
     20 N         5.986006   1.168736   -5.780181 N.3        1 UNL1     -0.3018
     21 C         6.757475   1.010767   -4.545577 C.3        1 UNL1     0.0026
     22 C         5.984247   1.700224   -3.420116 C.3        1 UNL1     0.0016
     23 C         6.425359   0.349528   -6.892166 C.3        1 UNL1     0.0012
     24 C         5.264333   0.096913   -7.866824 C.3        1 UNL1     -0.0339
     25 C         5.349717   1.018995   -9.094233 C.3        1 UNL1     -0.0615
     26 C         5.231118   -1.367333   -8.268894 C.3        1 UNL1     -0.0615
     27 C         6.308565   8.948527   -2.276985 C.ar        1 UNL1     0.1347
     28 C         5.354952   9.216521   -1.311142 C.ar        1 UNL1     0.0342
     29 C         4.65881   8.080794   -0.845659 C.ar        1 UNL1     0.1435
     30 C         4.87792   6.798955   -1.351724 C.ar        1 UNL1     0.0774
     31 O         3.622945   8.192562   0.014282 O.3        1 UNL1     -0.4436
     32 C         2.903125   6.958064   -0.12263 C.3        1 UNL1     0.3143
     33 C         3.915263   5.966887   -0.660552 C.2        1 UNL1     0.2504
     34 C         4.90786   10.581894   -0.868465 C.3        1 UNL1     -0.0327
     35 O         2.551727   6.521351   1.196102 O.2        1 UNL1     -0.4528
     36 C         -0.689453   4.581754   0.820867 C.3        1 UNL1     0.0854
     37 C         -0.997591   3.319961   -0.073812 C.3        1 UNL1     0.0236
     38 C         -1.59039   2.058062   0.718618 C.3        1 UNL1     0.1131
     39 C         -0.855298   1.529516   2.015749 C.3        1 UNL1     0.0200
     40 C         0.806438   1.387673   2.046567 C.3        1 UNL1     0.0661
     41 C         1.760151   0.620267   0.872203 C.3        1 UNL1     0.0091
     42 C         3.463354   0.986264   0.29727 C.3        1 UNL1     0.0661
     43 C         7.456088   7.474697   -3.943919 C.2        1 UNL1     0.2131
     44 O         7.849458   8.373226   -4.665475 O.2        1 UNL1     -0.2851
     45 O         7.115639   9.985154   -2.741177 O.3        1 UNL1     -0.5056
     46 O         3.934741   4.76347   -0.529169 O.2        1 UNL1     -0.2836
     47 C         5.572562   1.332879   1.893802 C.3        1 UNL1     -0.0566
     48 O         3.915549   -0.423796   0.377068 O.3        1 UNL1     -0.3909
     49 C         0.918707   0.385082   -0.362364 C.3        1 UNL1     -0.0577
     50 O         1.406392   2.607097   2.434874 O.3        1 UNL1     -0.3910
     51 O         -0.804377   4.392647   2.213154 O.3        1 UNL1     -0.3753
     52 C         0.039955   3.161103   -1.232782 C.3        1 UNL1     -0.0564
     53 O         -2.196331   1.017203   -0.1768 O.3        1 UNL1     -0.4608
     54 C         -2.394555   -0.297935   0.153428 C.2        1 UNL1     0.3042
     55 O         -1.720312   -1.265723   -0.196744 O.2        1 UNL1     -0.2512
     56 C         -3.545022   -0.514819   1.094756 C.3        1 UNL1     0.0332
     57 C         -1.569867   2.197678   3.281105 C.3        1 UNL1     -0.0567
     58 C         1.820598   7.200117   -1.200161 C.3        1 UNL1     0.0210
     59 C         -1.115527   5.571407   2.954489 C.3        1 UNL1     0.0372
     60 C         0.63667   5.213635   0.581527 C.2        1 UNL1     -0.0208
     61 C         1.554086   5.651414   1.444918 C.2        1 UNL1     0.0882
     62 H         4.688681   2.743781   0.547537 H        1 UNL1     0.0365
     63 H         6.327843   3.622667   -0.295632 H        1 UNL1     0.0576
     64 H         8.332044   1.507684   -1.299025 H        1 UNL1     0.0615
     65 H         8.256679   4.6248   -1.488141 H        1 UNL1     0.0622
     66 H         -1.43769   5.326445   0.514888 H        1 UNL1     0.0645
     67 H         -1.867649   3.627039   -0.679835 H        1 UNL1     0.0362
     68 H         -2.536195   2.493059   1.076044 H        1 UNL1     0.0741
     69 H         -1.183346   0.517807   2.213836 H        1 UNL1     0.0359
     70 H         0.925215   0.72813   2.927451 H        1 UNL1     0.0600
     71 H         1.808678   -0.400538   1.299473 H        1 UNL1     0.0348
     72 H         3.362555   1.474834   1.277298 H        1 UNL1     0.0602
     73 H         0.747607   5.410509   -0.455864 H        1 UNL1     0.0628
     74 H         1.543735   5.441368   2.514969 H        1 UNL1     0.1022
     75 H         10.877515   2.2683   -3.562452 H        1 UNL1     0.0279
     76 H         10.798652   3.527176   -4.729633 H        1 UNL1     0.0279
     77 H         11.888945   3.625834   -3.288513 H        1 UNL1     0.0279
     78 H         9.023926   4.821932   -5.080525 H        1 UNL1     0.1553
     79 H         7.750829   3.347556   -4.717668 H        1 UNL1     0.1484
     80 H         4.002139   2.736158   -4.831731 H        1 UNL1     0.0317
     81 H         4.730489   4.265178   -5.302401 H        1 UNL1     0.0317
     82 H         6.6383   3.079212   -6.419291 H        1 UNL1     0.0428
     83 H         5.079523   2.599221   -7.052953 H        1 UNL1     0.0428
     84 H         6.882046   -0.031727   -4.236543 H        1 UNL1     0.0428
     85 H         7.786077   1.38101   -4.656096 H        1 UNL1     0.0428
     86 H         6.506926   1.451562   -2.515151 H        1 UNL1     0.0317
     87 H         5.006668   1.220502   -3.288578 H        1 UNL1     0.0317
     88 H         7.216889   0.892757   -7.424781 H        1 UNL1     0.0429
     89 H         6.862246   -0.59507   -6.543398 H        1 UNL1     0.0429
     90 H         4.315229   0.287772   -7.352055 H        1 UNL1     0.0308
     91 H         6.364691   1.045495   -9.501944 H        1 UNL1     0.0233
     92 H         4.658623   0.689611   -9.873658 H        1 UNL1     0.0233
     93 H         5.074304   2.05417   -8.858873 H        1 UNL1     0.0233
     94 H         4.694753   -1.486746   -9.216464 H        1 UNL1     0.0233
     95 H         6.249847   -1.739546   -8.408935 H        1 UNL1     0.0233
     96 H         4.73324   -1.978168   -7.510628 H        1 UNL1     0.0233
     97 H         4.064378   10.533148   -0.186268 H        1 UNL1     0.0280
     98 H         5.698191   11.122108   -0.331063 H        1 UNL1     0.0280
     99 H         4.60733   11.174902   -1.747736 H        1 UNL1     0.0280
     100 H         6.648594   10.762666   -2.992107 H        1 UNL1     0.2922
     101 H         4.690866   1.001956   2.442217 H        1 UNL1     0.0236
     102 H         6.122839   2.104405   2.43132 H        1 UNL1     0.0236
     103 H         6.244784   0.458636   1.890885 H        1 UNL1     0.0236
     104 H         4.253009   -0.574579   1.281698 H        1 UNL1     0.2098
     105 H         0.700388   1.283098   -0.934829 H        1 UNL1     0.0234
     106 H         1.285756   -0.402465   -1.02037 H        1 UNL1     0.0234
     107 H         0.0   -0.0   0.0 H        1 UNL1     0.0234
     108 H         1.255868   3.247303   1.712899 H        1 UNL1     0.2098
     109 H         1.06883   3.062525   -0.859405 H        1 UNL1     0.0234
     110 H         -0.1882   2.325475   -1.903166 H        1 UNL1     0.0234
     111 H         0.04626   4.038302   -1.89341 H        1 UNL1     0.0234
     112 H         -3.635084   -1.578901   1.333432 H        1 UNL1     0.0342
     113 H         -3.451141   0.082201   2.000624 H        1 UNL1     0.0342
     114 H         -4.467972   -0.20455   0.585774 H        1 UNL1     0.0342
     115 H         -2.657908   2.045932   3.263024 H        1 UNL1     0.0234
     116 H         -1.203267   1.832059   4.242342 H        1 UNL1     0.0234
     117 H         -1.508502   3.299539   3.289987 H        1 UNL1     0.0234
     118 H         0.91921   7.681051   -0.781582 H        1 UNL1     0.0309
     119 H         2.182048   7.79228   -2.04686 H        1 UNL1     0.0309
     120 H         1.434724   6.267157   -1.625359 H        1 UNL1     0.0309
     121 H         -0.736347   5.433948   3.966756 H        1 UNL1     0.0524
     122 H         -0.629362   6.468787   2.536888 H        1 UNL1     0.0524
     123 H         -2.190041   5.729817   2.975007 H        1 UNL1     0.0524
@<TRIPOS>BOND
     1     1     2    1
     2     1    42    1
     3     2     3    2
     4     3     4    1
     5     4     5    2
     6     5     7    1
     7     6    75    1
     8     6    76    1
     9     6    77    1
    10     7     9   am
    11     9    10    1
    12    10    11    2
    13    10    43    1
    14    11    14    1
    15    11    15    1
    16    12    13   ar
    17    12    27   ar
    18    12    43    1
    19    13    14    1
    20    13    30   ar
    21    14    17    2
    22    15    16    1
    23    16    17    1
    24    16    18    1
    25    16    22    1
    26    18    19    1
    27    19    20    1
    28    20    21    1
    29    21    22    1
    30    23    24    1
    31    23    88    1
    32    23    89    1
    33    24    25    1
    34    24    26    1
    35    24    90    1
    36    25    91    1
    37    25    92    1
    38    25    93    1
    39    26    94    1
    40    26    95    1
    41    26    96    1
    42    27    28   ar
    43    28    29   ar
    44    29    30   ar
    45    29    31    1
    46    30    33    1
    47    31    32    1
    48    32    33    1
    49    32    35    1
    50    34    97    1
    51    34    98    1
    52    34    99    1
    53    35    61    1
    54    36    37    1
    55    36    60    1
    56    37    38    1
    57    38    39    1
    58    39    40    1
    59    40    41    1
    60    41    42    1
    61    45   100    1
    62    47   101    1
    63    47   102    1
    64    47   103    1
    65    48   104    1
    66    49   105    1
    67    49   106    1
    68    49   107    1
    69    50   108    1
    70    51    59    1
    71    52   109    1
    72    52   110    1
    73    52   111    1
    74    53    54    1
    75    54    55    2
    76    54    56    1
    77    56   112    1
    78    56   113    1
    79    56   114    1
    80    57   115    1
    81    57   116    1
    82    57   117    1
    83    58   118    1
    84    58   119    1
    85    58   120    1
    86    59   121    1
    87    59   122    1
    88    59   123    1
    89    60    61    2
    90     1    47    1
    91     1    62    1
    92     2    63    1
    93     3    64    1
    94     4    65    1
    95     5     6    1
    96     7     8    2
    97     9    78    1
    98    15    79    1
    99    18    80    1
   100    18    81    1
   101    19    82    1
   102    19    83    1
   103    20    23    1
   104    21    84    1
   105    21    85    1
   106    22    86    1
   107    22    87    1
   108    27    45    1
   109    28    34    1
   110    32    58    1
   111    33    46    2
   112    36    51    1
   113    36    66    1
   114    37    52    1
   115    37    67    1
   116    38    53    1
   117    38    68    1
   118    42    48    1
   119    42    72    1
   120    43    44    2
   121    60    73    1
   122    61    74    1
   123    39    69    1
   124    39    57    1
   125    40    70    1
   126    40    50    1
   127    41    71    1
   128    41    49    1
