@<TRIPOS>MOLECULE
*****
 123 128 0 0 0
SMALL
GASTEIGER

@<TRIPOS>ATOM
     1 C         2.045371   0.248634   4.651381 C.3        1 UNL1     0.0009
     2 C         1.868965   1.08751   6.29522 C.2        1 UNL1     -0.0787
     3 C         2.113215   2.224222   7.157933 C.2        1 UNL1     -0.0649
     4 C         1.528944   2.485524   8.725321 C.2        1 UNL1     -0.0542
     5 C         1.271455   3.45989   9.721006 C.2        1 UNL1     0.0115
     6 C         1.500455   4.945091   10.114784 C.3        1 UNL1     -0.0348
     7 C         0.272349   3.09634   10.923756 C.2        1 UNL1     0.2441
     8 O         0.661078   2.798866   12.044883 O.2        1 UNL1     -0.2702
     9 N         -1.079034   3.39523   10.677627 N.am        1 UNL1     -0.2772
     10 C         -1.700197   2.335151   10.058182 C.2        1 UNL1     0.1049
     11 C         -1.547277   2.255179   8.748815 C.2        1 UNL1     0.0801
     12 C         -2.020423   -0.141037   10.210756 C.ar        1 UNL1     0.0753
     13 C         -1.642361   -0.196041   8.83139 C.ar        1 UNL1     0.0305
     14 C         -1.521426   1.014661   8.0223 C.2        1 UNL1     0.0924
     15 N         -1.056135   3.155351   7.879909 N.pl3        1 UNL1     -0.3170
     16 C         -1.268137   2.644835   6.551495 C.3        1 UNL1     0.1275
     17 N         -1.281338   1.145192   6.720668 N.2        1 UNL1     -0.2557
     18 C         -2.683166   3.03671   6.136972 C.3        1 UNL1     0.0016
     19 C         -2.825722   4.545403   6.259899 C.3        1 UNL1     0.0026
     20 N         -1.833936   5.180329   5.40301 N.3        1 UNL1     -0.3018
     21 C         -0.443943   4.816236   5.685362 C.3        1 UNL1     0.0026
     22 C         -0.322524   3.297265   5.551646 C.3        1 UNL1     0.0016
     23 C         -2.075353   6.596996   5.214821 C.3        1 UNL1     0.0012
     24 C         -0.766815   7.325157   4.869473 C.3        1 UNL1     -0.0339
     25 C         -0.824206   7.949291   3.465472 C.3        1 UNL1     -0.0615
     26 C         -0.453712   8.365143   5.931159 C.3        1 UNL1     -0.0615
     27 C         -2.251136   -1.30337   10.942789 C.ar        1 UNL1     0.1347
     28 C         -2.174099   -2.571755   10.39569 C.ar        1 UNL1     0.0342
     29 C         -1.752732   -2.603312   9.049355 C.ar        1 UNL1     0.1435
     30 C         -1.483042   -1.448665   8.313639 C.ar        1 UNL1     0.0774
     31 O         -1.734784   -3.754922   8.343325 O.3        1 UNL1     -0.4436
     32 C         -1.727367   -3.338045   6.969632 C.3        1 UNL1     0.3143
     33 C         -1.165426   -1.930857   6.985717 C.2        1 UNL1     0.2504
     34 C         -2.648774   -3.842137   11.044467 C.3        1 UNL1     -0.0327
     35 O         -0.776531   -4.15912   6.280431 O.2        1 UNL1     -0.4528
     36 C         -2.035912   -4.437029   2.710444 C.3        1 UNL1     0.0854
     37 C         -2.347202   -3.291707   1.671763 C.3        1 UNL1     0.0236
     38 C         -1.578694   -3.42304   0.270374 C.3        1 UNL1     0.1131
     39 C         -0.012341   -3.643162   0.251512 C.3        1 UNL1     0.0200
     40 C         0.976385   -2.766276   1.269319 C.3        1 UNL1     0.0661
     41 C         0.949486   -1.082439   1.473228 C.3        1 UNL1     0.0091
     42 C         1.311123   -0.056708   2.950556 C.3        1 UNL1     0.0661
     43 C         -2.245928   1.196744   10.812211 C.2        1 UNL1     0.2131
     44 O         -2.924039   1.382044   11.806478 O.2        1 UNL1     -0.2851
     45 O         -2.570667   -1.163411   12.29177 O.3        1 UNL1     -0.5056
     46 O         -0.569952   -1.347184   6.107885 O.2        1 UNL1     -0.2836
     47 C         3.492684   -0.28262   4.469624 C.3        1 UNL1     -0.0566
     48 O         2.189318   0.88889   2.219985 O.3        1 UNL1     -0.3909
     49 C         -0.319108   -0.536425   0.85676 C.3        1 UNL1     -0.0577
     50 O         1.093636   -3.403293   2.525577 O.3        1 UNL1     -0.3910
     51 O         -1.002455   -5.327342   2.354438 O.3        1 UNL1     -0.3753
     52 C         -2.564078   -1.911936   2.374719 C.3        1 UNL1     -0.0564
     53 O         -2.143056   -2.545732   -0.808584 O.3        1 UNL1     -0.4608
     54 C         -2.633754   -2.98098   -2.01179 C.2        1 UNL1     0.3042
     55 O         -3.66919   -3.615112   -2.210756 O.2        1 UNL1     -0.2512
     56 C         -1.800814   -2.559683   -3.188835 C.3        1 UNL1     0.0332
     57 C         0.252236   -5.215702   0.127855 C.3        1 UNL1     -0.0567
     58 C         -3.206556   -3.279449   6.522312 C.3        1 UNL1     0.0210
     59 C         0.246533   -4.706437   2.053818 C.3        1 UNL1     0.0372
     60 C         -1.742662   -3.969688   4.092745 C.2        1 UNL1     -0.0208
     61 C         -0.786585   -4.339775   4.945797 C.2        1 UNL1     0.0882
     62 H         1.450742   -0.588578   5.036352 H        1 UNL1     0.0365
     63 H         1.3727   0.303856   6.871481 H        1 UNL1     0.0576
     64 H         2.59251   3.132555   6.786026 H        1 UNL1     0.0615
     65 H         1.147193   1.506592   9.027712 H        1 UNL1     0.0622
     66 H         -2.971436   -5.009963   2.77818 H        1 UNL1     0.0645
     67 H         -3.391358   -3.4817   1.368116 H        1 UNL1     0.0362
     68 H         -2.010713   -4.369731   -0.088315 H        1 UNL1     0.0741
     69 H         0.364126   -3.38136   -0.728355 H        1 UNL1     0.0359
     70 H         1.95415   -2.93788   0.779843 H        1 UNL1     0.0600
     71 H         1.703362   -0.784268   0.71843 H        1 UNL1     0.0348
     72 H         1.77527   -1.035489   3.13995 H        1 UNL1     0.0602
     73 H         -2.521579   -3.32465   4.415953 H        1 UNL1     0.0628
     74 H         0.076592   -4.94995   4.677749 H        1 UNL1     0.1022
     75 H         2.528303   5.27304   9.826666 H        1 UNL1     0.0279
     76 H         0.871972   5.681054   9.618359 H        1 UNL1     0.0279
     77 H         1.5214   5.097952   11.203772 H        1 UNL1     0.0279
     78 H         -1.143895   4.19604   10.052669 H        1 UNL1     0.1553
     79 H         -0.975631   4.135505   8.079284 H        1 UNL1     0.1484
     80 H         -2.860537   2.700133   5.10837 H        1 UNL1     0.0317
     81 H         -3.427778   2.534535   6.763888 H        1 UNL1     0.0317
     82 H         -2.720984   4.880656   7.302275 H        1 UNL1     0.0428
     83 H         -3.842371   4.802942   5.961322 H        1 UNL1     0.0428
     84 H         0.273738   5.243487   4.978113 H        1 UNL1     0.0428
     85 H         -0.112803   5.194126   6.662533 H        1 UNL1     0.0428
     86 H         0.726884   3.082426   5.632729 H        1 UNL1     0.0317
     87 H         -0.565924   2.990657   4.527027 H        1 UNL1     0.0317
     88 H         -2.773442   6.716004   4.37589 H        1 UNL1     0.0429
     89 H         -2.554356   7.040546   6.097201 H        1 UNL1     0.0429
     90 H         0.06198   6.607918   4.899149 H        1 UNL1     0.0308
     91 H         -1.803063   7.795397   3.001513 H        1 UNL1     0.0233
     92 H         -0.612755   9.020237   3.509869 H        1 UNL1     0.0233
     93 H         -0.078855   7.518343   2.786082 H        1 UNL1     0.0233
     94 H         -1.231493   8.363518   6.70245 H        1 UNL1     0.0233
     95 H         0.49967   8.131566   6.413308 H        1 UNL1     0.0233
     96 H         -0.395316   9.369065   5.501394 H        1 UNL1     0.0233
     97 H         -1.954072   -4.198435   11.799232 H        1 UNL1     0.0280
     98 H         -3.60966   -3.710164   11.5588 H        1 UNL1     0.0280
     99 H         -2.76065   -4.62778   10.279389 H        1 UNL1     0.0280
     100 H         -3.488652   -1.235079   12.486166 H        1 UNL1     0.2922
     101 H         3.870173   -0.654408   5.421954 H        1 UNL1     0.0236
     102 H         4.164384   0.448324   4.02071 H        1 UNL1     0.0236
     103 H         3.532477   -1.153137   3.793747 H        1 UNL1     0.0236
     104 H         2.790886   1.297234   2.872933 H        1 UNL1     0.2098
     105 H         -1.023156   -1.297446   0.529691 H        1 UNL1     0.0234
     106 H         -0.829112   0.217244   1.456599 H        1 UNL1     0.0234
     107 H         0.0   0.0   0.0 H        1 UNL1     0.0234
     108 H         0.197282   -3.453886   2.90997 H        1 UNL1     0.2098
     109 H         -2.244031   -1.9258   3.425952 H        1 UNL1     0.0234
     110 H         -2.074943   -1.081859   1.8537 H        1 UNL1     0.0234
     111 H         -3.624809   -1.628137   2.390672 H        1 UNL1     0.0234
     112 H         -0.981884   -3.26983   -3.338473 H        1 UNL1     0.0342
     113 H         -2.395956   -2.453124   -4.094536 H        1 UNL1     0.0342
     114 H         -1.359333   -1.579165   -2.963351 H        1 UNL1     0.0342
     115 H         0.561656   -5.654411   1.086491 H        1 UNL1     0.0234
     116 H         -0.608407   -5.783842   -0.230697 H        1 UNL1     0.0234
     117 H         1.116486   -5.467526   -0.510578 H        1 UNL1     0.0234
     118 H         -3.726132   -2.391658   6.923402 H        1 UNL1     0.0309
     119 H         -3.327812   -3.304457   5.434712 H        1 UNL1     0.0309
     120 H         -3.797161   -4.115504   6.912571 H        1 UNL1     0.0309
     121 H         0.779637   -4.566098   2.993745 H        1 UNL1     0.0524
     122 H         0.879449   -5.333016   1.403547 H        1 UNL1     0.0524
     123 H         0.082835   -3.748163   1.569042 H        1 UNL1     0.0524
@<TRIPOS>BOND
     1     1     2    1
     2     1    42    1
     3     2     3    2
     4     3     4    1
     5     4     5    2
     6     5     7    1
     7     6    75    1
     8     6    76    1
     9     6    77    1
    10     7     9   am
    11     9    10    1
    12    10    11    2
    13    10    43    1
    14    11    14    1
    15    11    15    1
    16    12    13   ar
    17    12    27   ar
    18    12    43    1
    19    13    14    1
    20    13    30   ar
    21    14    17    2
    22    15    16    1
    23    16    17    1
    24    16    18    1
    25    16    22    1
    26    18    19    1
    27    19    20    1
    28    20    21    1
    29    21    22    1
    30    23    24    1
    31    23    88    1
    32    23    89    1
    33    24    25    1
    34    24    26    1
    35    24    90    1
    36    25    91    1
    37    25    92    1
    38    25    93    1
    39    26    94    1
    40    26    95    1
    41    26    96    1
    42    27    28   ar
    43    28    29   ar
    44    29    30   ar
    45    29    31    1
    46    30    33    1
    47    31    32    1
    48    32    33    1
    49    32    35    1
    50    34    97    1
    51    34    98    1
    52    34    99    1
    53    35    61    1
    54    36    37    1
    55    36    60    1
    56    37    38    1
    57    38    39    1
    58    39    40    1
    59    40    41    1
    60    41    42    1
    61    45   100    1
    62    47   101    1
    63    47   102    1
    64    47   103    1
    65    48   104    1
    66    49   105    1
    67    49   106    1
    68    49   107    1
    69    50   108    1
    70    51    59    1
    71    52   109    1
    72    52   110    1
    73    52   111    1
    74    53    54    1
    75    54    55    2
    76    54    56    1
    77    56   112    1
    78    56   113    1
    79    56   114    1
    80    57   115    1
    81    57   116    1
    82    57   117    1
    83    58   118    1
    84    58   119    1
    85    58   120    1
    86    59   121    1
    87    59   122    1
    88    59   123    1
    89    60    61    2
    90     1    47    1
    91     1    62    1
    92     2    63    1
    93     3    64    1
    94     4    65    1
    95     5     6    1
    96     7     8    2
    97     9    78    1
    98    15    79    1
    99    18    80    1
   100    18    81    1
   101    19    82    1
   102    19    83    1
   103    20    23    1
   104    21    84    1
   105    21    85    1
   106    22    86    1
   107    22    87    1
   108    27    45    1
   109    28    34    1
   110    32    58    1
   111    33    46    2
   112    36    51    1
   113    36    66    1
   114    37    52    1
   115    37    67    1
   116    38    53    1
   117    38    68    1
   118    42    48    1
   119    42    72    1
   120    43    44    2
   121    60    73    1
   122    61    74    1
   123    39    69    1
   124    39    57    1
   125    40    70    1
   126    40    50    1
   127    41    71    1
   128    41    49    1
