@<TRIPOS>MOLECULE
*****
 123 128 0 0 0
SMALL
GASTEIGER

@<TRIPOS>ATOM
     1 C         4.94381   2.354471   -0.120357 C.3        1 UNL1     0.0009
     2 C         6.138257   3.370131   -1.109683 C.2        1 UNL1     -0.0787
     3 C         7.312956   3.461943   -1.950932 C.2        1 UNL1     -0.0649
     4 C         7.921505   4.829054   -2.742785 C.2        1 UNL1     -0.0542
     5 C         8.753784   5.287842   -3.793453 C.2        1 UNL1     0.0115
     6 C         9.810169   4.846801   -4.843623 C.3        1 UNL1     -0.0348
     7 C         8.586438   6.796962   -4.31455 C.2        1 UNL1     0.2441
     8 O         9.354589   7.697091   -4.00433 O.2        1 UNL1     -0.2702
     9 N         7.655781   6.960904   -5.355297 N.am        1 UNL1     -0.2772
     10 C         6.395642   7.170628   -4.844035 C.2        1 UNL1     0.1049
     11 C         5.720327   6.089502   -4.498583 C.2        1 UNL1     0.0801
     12 C         5.136245   8.538821   -3.170925 C.ar        1 UNL1     0.0753
     13 C         4.58693   7.306429   -2.693357 C.ar        1 UNL1     0.0305
     14 C         4.761016   6.055467   -3.428097 C.2        1 UNL1     0.0924
     15 N         5.973064   4.79452   -4.75485 N.pl3        1 UNL1     -0.3170
     16 C         4.840797   4.028619   -4.305828 C.3        1 UNL1     0.1275
     17 N         4.245637   4.852658   -3.190271 N.2        1 UNL1     -0.2557
     18 C         3.813132   4.037334   -5.433449 C.3        1 UNL1     0.0016
     19 C         4.47152   3.503422   -6.69561 C.3        1 UNL1     0.0026
     20 N         4.953773   2.153834   -6.436624 N.3        1 UNL1     -0.3018
     21 C         5.901824   2.034634   -5.326958 C.3        1 UNL1     0.0026
     22 C         5.218134   2.572288   -4.06863 C.3        1 UNL1     0.0016
     23 C         5.325761   1.446205   -7.645562 C.3        1 UNL1     0.0012
     24 C         4.077556   1.098891   -8.472069 C.3        1 UNL1     -0.0339
     25 C         3.826899   2.139063   -9.576275 C.3        1 UNL1     -0.0615
     26 C         4.204391   -0.302831   -9.04292 C.3        1 UNL1     -0.0615
     27 C         4.865101   9.745904   -2.530964 C.ar        1 UNL1     0.1347
     28 C         4.030139   9.851014   -1.432857 C.ar        1 UNL1     0.0342
     29 C         3.539953   8.618722   -0.95084 C.ar        1 UNL1     0.1435
     30 C         3.83224   7.397749   -1.559947 C.ar        1 UNL1     0.0774
     31 O         2.627305   8.563769   0.043675 O.3        1 UNL1     -0.4436
     32 C         2.041683   7.258301   -0.073252 C.3        1 UNL1     0.3143
     33 C         3.07636   6.423673   -0.800612 C.2        1 UNL1     0.2504
     34 C         3.495231   11.12992   -0.851158 C.3        1 UNL1     -0.0327
     35 O         1.928754   6.721952   1.250693 O.2        1 UNL1     -0.4528
     36 C         -1.089381   4.420879   1.187356 C.3        1 UNL1     0.0854
     37 C         -1.37189   3.173319   0.264695 C.3        1 UNL1     0.0236
     38 C         -1.700662   1.813531   1.048679 C.3        1 UNL1     0.1131
     39 C         -0.737276   1.319608   2.20202 C.3        1 UNL1     0.0200
     40 C         0.917906   1.38019   2.004175 C.3        1 UNL1     0.0661
     41 C         1.781293   0.789504   0.668787 C.3        1 UNL1     0.0091
     42 C         3.335156   1.386448   -0.102298 C.3        1 UNL1     0.0661
     43 C         5.931833   8.50105   -4.423072 C.2        1 UNL1     0.2131
     44 O         6.115877   9.472995   -5.133134 O.2        1 UNL1     -0.2851
     45 O         5.475944   10.893408   -3.032506 O.3        1 UNL1     -0.5056
     46 O         3.251601   5.22686   -0.747859 O.2        1 UNL1     -0.2836
     47 C         5.591482   1.914047   1.219989 C.3        1 UNL1     -0.0566
     48 O         3.952591   0.039886   -0.170563 O.3        1 UNL1     -0.3909
     49 C         0.809458   0.510367   -0.455986 C.3        1 UNL1     -0.0577
     50 O         1.422173   2.644561   2.384706 O.3        1 UNL1     -0.3910
     51 O         -0.987866   4.155487   2.568187 O.3        1 UNL1     -0.3753
     52 C         -0.493624   3.195511   -1.02879 C.3        1 UNL1     -0.0564
     53 O         -2.301537   0.748742   0.178334 O.3        1 UNL1     -0.4608
     54 C         -2.330051   -0.590837   0.465817 C.2        1 UNL1     0.3042
     55 O         -1.717484   -1.490909   -0.107307 O.2        1 UNL1     -0.2512
     56 C         -3.177609   -0.932113   1.658246 C.3        1 UNL1     0.0332
     57 C         -1.341439   1.836882   3.589676 C.3        1 UNL1     -0.0567
     58 C         0.799771   7.415731   -0.981216 C.3        1 UNL1     0.0210
     59 C         -1.326287   5.252242   3.41581 C.3        1 UNL1     0.0372
     60 C         0.109579   5.220062   0.81458 C.2        1 UNL1     -0.0208
     61 C         1.081511   5.726363   1.57468 C.2        1 UNL1     0.0882
     62 H         4.373831   3.266916   0.092431 H        1 UNL1     0.0365
     63 H         5.768769   4.376877   -0.903744 H        1 UNL1     0.0576
     64 H         7.84361   2.57035   -2.292364 H        1 UNL1     0.0615
     65 H         7.386141   5.660385   -2.276141 H        1 UNL1     0.0622
     66 H         -1.95314   5.082023   1.029698 H        1 UNL1     0.0645
     67 H         -2.346917   3.399493   -0.200845 H        1 UNL1     0.0362
     68 H         -2.631373   2.11309   1.554212 H        1 UNL1     0.0741
     69 H         -0.916621   0.267432   2.378567 H        1 UNL1     0.0359
     70 H         1.232357   0.700333   2.819022 H        1 UNL1     0.0600
     71 H         2.005182   -0.236288   1.021749 H        1 UNL1     0.0348
     72 H         3.315805   1.813595   0.910859 H        1 UNL1     0.0602
     73 H         0.052423   5.476386   -0.214147 H        1 UNL1     0.0628
     74 H         1.243649   5.467746   2.621612 H        1 UNL1     0.1022
     75 H         10.005141   3.749938   -4.766745 H        1 UNL1     0.0279
     76 H         9.532817   4.962732   -5.888949 H        1 UNL1     0.0279
     77 H         10.809365   5.259343   -4.640853 H        1 UNL1     0.0279
     78 H         7.620579   6.114228   -5.919191 H        1 UNL1     0.1553
     79 H         6.58742   4.48053   -5.483486 H        1 UNL1     0.1484
     80 H         2.954056   3.422467   -5.13901 H        1 UNL1     0.0317
     81 H         3.430146   5.048865   -5.606016 H        1 UNL1     0.0317
     82 H         5.288005   4.156891   -7.036557 H        1 UNL1     0.0428
     83 H         3.721826   3.519991   -7.487276 H        1 UNL1     0.0428
     84 H         6.18662   1.002036   -5.102358 H        1 UNL1     0.0428
     85 H         6.855934   2.532219   -5.549218 H        1 UNL1     0.0428
     86 H         5.886168   2.347956   -3.257831 H        1 UNL1     0.0317
     87 H         4.329671   1.971414   -3.839109 H        1 UNL1     0.0317
     88 H         5.968361   2.10576   -8.243346 H        1 UNL1     0.0429
     89 H         5.912073   0.546929   -7.416841 H        1 UNL1     0.0429
     90 H         3.20375   1.07481   -7.810181 H        1 UNL1     0.0308
     91 H         4.692013   2.23112   -10.239755 H        1 UNL1     0.0233
     92 H         2.948363   1.870596   -10.167637 H        1 UNL1     0.0233
     93 H         3.628929   3.138799   -9.171095 H        1 UNL1     0.0233
     94 H         3.416319   -0.482309   -9.782221 H        1 UNL1     0.0233
     95 H         5.169464   -0.416   -9.544705 H        1 UNL1     0.0233
     96 H         4.122687   -1.0616   -8.259618 H        1 UNL1     0.0233
     97 H         2.821391   10.948601   -0.019116 H        1 UNL1     0.0280
     98 H         4.294256   11.771098   -0.45656 H        1 UNL1     0.0280
     99 H         2.944306   11.686238   -1.6271 H        1 UNL1     0.0280
     100 H         4.882815   11.594155   -3.239324 H        1 UNL1     0.2922
     101 H         4.867457   1.354382   1.811782 H        1 UNL1     0.0236
     102 H         6.024065   2.742651   1.779695 H        1 UNL1     0.0236
     103 H         6.428161   1.212554   1.064847 H        1 UNL1     0.0236
     104 H         4.50562   -0.071811   0.627343 H        1 UNL1     0.2098
     105 H         0.412566   1.400373   -0.937834 H        1 UNL1     0.0234
     106 H         1.169553   -0.195589   -1.20424 H        1 UNL1     0.0234
     107 H         0.0   -0.0   0.0 H        1 UNL1     0.0234
     108 H         1.054891   3.302363   1.763281 H        1 UNL1     0.2098
     109 H         0.581596   3.19362   -0.801609 H        1 UNL1     0.0234
     110 H         -0.723667   2.376977   -1.719316 H        1 UNL1     0.0234
     111 H         -0.670381   4.102268   -1.622502 H        1 UNL1     0.0234
     112 H         -3.150461   -2.011215   1.837548 H        1 UNL1     0.0342
     113 H         -2.874984   -0.380619   2.54713 H        1 UNL1     0.0342
     114 H         -4.216226   -0.65438   1.43174 H        1 UNL1     0.0342
     115 H         -2.357887   1.456006   3.759838 H        1 UNL1     0.0234
     116 H         -0.740902   1.571121   4.4619 H        1 UNL1     0.0234
     117 H         -1.515135   2.926438   3.614949 H        1 UNL1     0.0234
     118 H         -0.082829   7.76791   -0.419082 H        1 UNL1     0.0309
     119 H         0.971584   8.082168   -1.832417 H        1 UNL1     0.0309
     120 H         0.46539   6.462506   -1.405078 H        1 UNL1     0.0309
     121 H         -0.621546   6.057496   3.210234 H        1 UNL1     0.0524
     122 H         -2.339509   5.638652   3.215543 H        1 UNL1     0.0524
     123 H         -1.262033   4.955035   4.458706 H        1 UNL1     0.0524
@<TRIPOS>BOND
     1     1     2    1
     2     1    42    1
     3     2     3    2
     4     3     4    1
     5     4     5    2
     6     5     7    1
     7     6    75    1
     8     6    76    1
     9     6    77    1
    10     7     9   am
    11     9    10    1
    12    10    11    2
    13    10    43    1
    14    11    14    1
    15    11    15    1
    16    12    13   ar
    17    12    27   ar
    18    12    43    1
    19    13    14    1
    20    13    30   ar
    21    14    17    2
    22    15    16    1
    23    16    17    1
    24    16    18    1
    25    16    22    1
    26    18    19    1
    27    19    20    1
    28    20    21    1
    29    21    22    1
    30    23    24    1
    31    23    88    1
    32    23    89    1
    33    24    25    1
    34    24    26    1
    35    24    90    1
    36    25    91    1
    37    25    92    1
    38    25    93    1
    39    26    94    1
    40    26    95    1
    41    26    96    1
    42    27    28   ar
    43    28    29   ar
    44    29    30   ar
    45    29    31    1
    46    30    33    1
    47    31    32    1
    48    32    33    1
    49    32    35    1
    50    34    97    1
    51    34    98    1
    52    34    99    1
    53    35    61    1
    54    36    37    1
    55    36    60    1
    56    37    38    1
    57    38    39    1
    58    39    40    1
    59    40    41    1
    60    41    42    1
    61    45   100    1
    62    47   101    1
    63    47   102    1
    64    47   103    1
    65    48   104    1
    66    49   105    1
    67    49   106    1
    68    49   107    1
    69    50   108    1
    70    51    59    1
    71    52   109    1
    72    52   110    1
    73    52   111    1
    74    53    54    1
    75    54    55    2
    76    54    56    1
    77    56   112    1
    78    56   113    1
    79    56   114    1
    80    57   115    1
    81    57   116    1
    82    57   117    1
    83    58   118    1
    84    58   119    1
    85    58   120    1
    86    59   121    1
    87    59   122    1
    88    59   123    1
    89    60    61    2
    90     1    47    1
    91     1    62    1
    92     2    63    1
    93     3    64    1
    94     4    65    1
    95     5     6    1
    96     7     8    2
    97     9    78    1
    98    15    79    1
    99    18    80    1
   100    18    81    1
   101    19    82    1
   102    19    83    1
   103    20    23    1
   104    21    84    1
   105    21    85    1
   106    22    86    1
   107    22    87    1
   108    27    45    1
   109    28    34    1
   110    32    58    1
   111    33    46    2
   112    36    51    1
   113    36    66    1
   114    37    52    1
   115    37    67    1
   116    38    53    1
   117    38    68    1
   118    42    48    1
   119    42    72    1
   120    43    44    2
   121    60    73    1
   122    61    74    1
   123    39    69    1
   124    39    57    1
   125    40    70    1
   126    40    50    1
   127    41    71    1
   128    41    49    1
