@<TRIPOS>MOLECULE
*****
 123 128 0 0 0
SMALL
GASTEIGER

@<TRIPOS>ATOM
     1 C         -1.502739   3.607465   -1.527633 C.3        1 UNL1     0.0009
     2 C         -3.279684   4.062315   -1.797104 C.2        1 UNL1     -0.0787
     3 C         -4.405797   4.25581   -2.686192 C.2        1 UNL1     -0.0649
     4 C         -6.008344   4.613002   -2.273139 C.2        1 UNL1     -0.0542
     5 C         -7.3542   4.58878   -2.714911 C.2        1 UNL1     0.0115
     6 C         -8.266948   4.36373   -3.951668 C.3        1 UNL1     -0.0348
     7 C         -8.530621   4.700372   -1.628371 C.2        1 UNL1     0.2441
     8 O         -9.154917   5.733004   -1.427243 O.2        1 UNL1     -0.2702
     9 N         -8.971674   3.470606   -1.10943 N.am        1 UNL1     -0.2772
     10 C         -8.217326   3.112657   -0.015742 C.2        1 UNL1     0.1049
     11 C         -7.066651   2.517255   -0.271996 C.2        1 UNL1     0.0801
     12 C         -7.325884   3.987919   2.151418 C.ar        1 UNL1     0.0753
     13 C         -6.04634   3.504086   1.730369 C.ar        1 UNL1     0.0305
     14 C         -5.902454   2.636711   0.563319 C.2        1 UNL1     0.0924
     15 N         -6.594514   2.009131   -1.423267 N.pl3        1 UNL1     -0.3170
     16 C         -5.367129   1.318694   -1.128175 C.3        1 UNL1     0.1275
     17 N         -4.82197   2.021513   0.091075 N.2        1 UNL1     -0.2557
     18 C         -5.738486   -0.089813   -0.674409 C.3        1 UNL1     0.0016
     19 C         -6.581587   -0.743332   -1.757775 C.3        1 UNL1     0.0026
     20 N         -5.811387   -0.776911   -2.993369 N.3        1 UNL1     -0.3018
     21 C         -5.355356   0.527751   -3.477374 C.3        1 UNL1     0.0026
     22 C         -4.506704   1.164276   -2.375321 C.3        1 UNL1     0.0016
     23 C         -6.397955   -1.638714   -4.000284 C.3        1 UNL1     0.0012
     24 C         -6.259989   -3.114162   -3.593129 C.3        1 UNL1     -0.0339
     25 C         -6.059549   -4.019596   -4.819534 C.3        1 UNL1     -0.0615
     26 C         -5.13113   -3.27414   -2.589704 C.3        1 UNL1     -0.0615
     27 C         -7.470558   4.71333   3.331658 C.ar        1 UNL1     0.1347
     28 C         -6.419407   4.982023   4.190109 C.ar        1 UNL1     0.0342
     29 C         -5.161152   4.538181   3.730802 C.ar        1 UNL1     0.1435
     30 C         -4.99548   3.841779   2.532972 C.ar        1 UNL1     0.0774
     31 O         -4.057143   4.626943   4.504296 O.3        1 UNL1     -0.4436
     32 C         -3.13618   3.686656   3.931094 C.3        1 UNL1     0.3143
     33 C         -3.584365   3.519376   2.493262 C.2        1 UNL1     0.2504
     34 C         -6.538178   5.530198   5.58492 C.3        1 UNL1     -0.0327
     35 O         -1.849932   4.317226   3.896473 O.2        1 UNL1     -0.4528
     36 C         0.690953   1.517605   4.23429 C.3        1 UNL1     0.0854
     37 C         0.889289   0.238109   3.333693 C.3        1 UNL1     0.0236
     38 C         2.366867   0.052977   2.738516 C.3        1 UNL1     0.1131
     39 C         3.0658   1.255012   1.984278 C.3        1 UNL1     0.0200
     40 C         2.210494   2.176124   0.887719 C.3        1 UNL1     0.0661
     41 C         1.264857   1.579041   -0.38777 C.3        1 UNL1     0.0091
     42 C         -0.262977   2.248633   -1.151165 C.3        1 UNL1     0.0661
     43 C         -8.507948   3.614948   1.335405 C.2        1 UNL1     0.2131
     44 O         -9.647895   3.613216   1.763487 O.2        1 UNL1     -0.2851
     45 O         -8.742686   5.18702   3.645895 O.3        1 UNL1     -0.5056
     46 O         -2.921275   3.21117   1.528289 O.2        1 UNL1     -0.2836
     47 C         -0.574128   4.760425   -1.994908 C.3        1 UNL1     -0.0566
     48 O         0.220714   2.077053   -2.542466 O.3        1 UNL1     -0.3909
     49 C         1.040462   0.098226   -0.177227 C.3        1 UNL1     -0.0577
     50 O         1.531537   3.230109   1.540296 O.3        1 UNL1     -0.3910
     51 O         1.770638   2.423609   4.263756 O.3        1 UNL1     -0.3753
     52 C         -0.390739   -0.088756   2.49725 C.3        1 UNL1     -0.0564
     53 O         2.62626   -1.320253   2.191452 O.3        1 UNL1     -0.4608
     54 C         3.623425   -1.65022   1.311273 C.2        1 UNL1     0.3042
     55 O         4.83526   -1.505109   1.466956 O.2        1 UNL1     -0.2512
     56 C         3.124615   -2.309582   0.057023 C.3        1 UNL1     0.0332
     57 C         3.984134   2.0218   3.045821 C.3        1 UNL1     -0.0567
     58 C         -3.352333   2.350812   4.679646 C.3        1 UNL1     0.0210
     59 C         1.40082   3.799507   4.186258 C.3        1 UNL1     0.0372
     60 C         -0.529934   2.314375   3.934699 C.2        1 UNL1     -0.0208
     61 C         -0.693407   3.632252   3.81133 C.2        1 UNL1     0.0882
     62 H         -1.651501   3.742845   -0.449555 H        1 UNL1     0.0365
     63 H         -3.570807   4.353923   -0.785827 H        1 UNL1     0.0576
     64 H         -4.343067   4.01591   -3.749968 H        1 UNL1     0.0615
     65 H         -5.946321   4.912651   -1.22345 H        1 UNL1     0.0622
     66 H         0.550446   1.121286   5.249787 H        1 UNL1     0.0645
     67 H         0.832859   -0.602853   4.046544 H        1 UNL1     0.0362
     68 H         2.929159   -0.069179   3.676827 H        1 UNL1     0.0741
     69 H         3.877146   0.86483   1.384375 H        1 UNL1     0.0359
     70 H         3.048132   2.671346   0.360292 H        1 UNL1     0.0600
     71 H         2.018288   1.571097   -1.199703 H        1 UNL1     0.0348
     72 H         0.205007   3.090531   -0.620586 H        1 UNL1     0.0602
     73 H         -1.376106   1.673143   3.942575 H        1 UNL1     0.0628
     74 H         0.123624   4.350589   3.735899 H        1 UNL1     0.1022
     75 H         -7.882975   4.934523   -4.831323 H        1 UNL1     0.0279
     76 H         -8.320381   3.347896   -4.33676 H        1 UNL1     0.0279
     77 H         -9.267314   4.803709   -3.827618 H        1 UNL1     0.0279
     78 H         -8.857913   2.742517   -1.811585 H        1 UNL1     0.1553
     79 H         -7.174318   1.775925   -2.208363 H        1 UNL1     0.1484
     80 H         -4.819917   -0.658048   -0.484394 H        1 UNL1     0.0317
     81 H         -6.291812   -0.063369   0.270463 H        1 UNL1     0.0317
     82 H         -7.537701   -0.218823   -1.901471 H        1 UNL1     0.0428
     83 H         -6.83679   -1.745844   -1.41297 H        1 UNL1     0.0428
     84 H         -4.712888   0.467568   -4.361356 H        1 UNL1     0.0428
     85 H         -6.194093   1.160164   -3.799694 H        1 UNL1     0.0428
     86 H         -4.083263   2.050129   -2.811154 H        1 UNL1     0.0317
     87 H         -3.629645   0.538655   -2.169259 H        1 UNL1     0.0317
     88 H         -7.465826   -1.395892   -4.077638 H        1 UNL1     0.0429
     89 H         -5.95453   -1.457318   -4.987828 H        1 UNL1     0.0429
     90 H         -7.171368   -3.42955   -3.071467 H        1 UNL1     0.0308
     91 H         -5.312242   -3.604553   -5.50245 H        1 UNL1     0.0233
     92 H         -5.748668   -5.021252   -4.513516 H        1 UNL1     0.0233
     93 H         -6.982138   -4.149204   -5.39821 H        1 UNL1     0.0233
     94 H         -5.52773   -3.255305   -1.568827 H        1 UNL1     0.0233
     95 H         -4.631436   -4.235292   -2.739557 H        1 UNL1     0.0233
     96 H         -4.392946   -2.473331   -2.688486 H        1 UNL1     0.0233
     97 H         -7.569477   5.562871   5.923426 H        1 UNL1     0.0280
     98 H         -6.000458   4.915295   6.318409 H        1 UNL1     0.0280
     99 H         -6.132093   6.554554   5.614682 H        1 UNL1     0.0280
     100 H         -9.177595   5.63697   2.943028 H        1 UNL1     0.2922
     101 H         -0.183206   5.292104   -1.12764 H        1 UNL1     0.0236
     102 H         -1.051288   5.433535   -2.706403 H        1 UNL1     0.0236
     103 H         0.320285   4.385019   -2.519588 H        1 UNL1     0.0236
     104 H         0.694039   2.894438   -2.793097 H        1 UNL1     0.2098
     105 H         1.291724   -0.520513   -1.035039 H        1 UNL1     0.0234
     106 H         1.49452   -0.307125   0.726902 H        1 UNL1     0.0234
     107 H         0.0   0.0   0.0 H        1 UNL1     0.0234
     108 H         1.959962   3.35749   2.408625 H        1 UNL1     0.2098
     109 H         -1.084749   -0.746637   3.03878 H        1 UNL1     0.0234
     110 H         -0.923472   0.806217   2.158192 H        1 UNL1     0.0234
     111 H         -0.142593   -0.618856   1.568076 H        1 UNL1     0.0234
     112 H         3.675931   -1.928873   -0.808111 H        1 UNL1     0.0342
     113 H         3.186376   -3.395365   0.112745 H        1 UNL1     0.0342
     114 H         2.066868   -2.042609   -0.073596 H        1 UNL1     0.0342
     115 H         4.664896   1.335454   3.568009 H        1 UNL1     0.0234
     116 H         4.590659   2.820045   2.613408 H        1 UNL1     0.0234
     117 H         3.417517   2.445367   3.892861 H        1 UNL1     0.0234
     118 H         -2.453728   1.709916   4.651934 H        1 UNL1     0.0309
     119 H         -3.663217   2.486911   5.720334 H        1 UNL1     0.0309
     120 H         -4.122049   1.726885   4.212359 H        1 UNL1     0.0309
     121 H         0.872651   4.051219   5.105516 H        1 UNL1     0.0524
     122 H         2.277248   4.46487   4.114125 H        1 UNL1     0.0524
     123 H         0.758394   3.968179   3.326646 H        1 UNL1     0.0524
@<TRIPOS>BOND
     1     1     2    1
     2     1    42    1
     3     2     3    2
     4     3     4    1
     5     4     5    2
     6     5     7    1
     7     6    75    1
     8     6    76    1
     9     6    77    1
    10     7     9   am
    11     9    10    1
    12    10    11    2
    13    10    43    1
    14    11    14    1
    15    11    15    1
    16    12    13   ar
    17    12    27   ar
    18    12    43    1
    19    13    14    1
    20    13    30   ar
    21    14    17    2
    22    15    16    1
    23    16    17    1
    24    16    18    1
    25    16    22    1
    26    18    19    1
    27    19    20    1
    28    20    21    1
    29    21    22    1
    30    23    24    1
    31    23    88    1
    32    23    89    1
    33    24    25    1
    34    24    26    1
    35    24    90    1
    36    25    91    1
    37    25    92    1
    38    25    93    1
    39    26    94    1
    40    26    95    1
    41    26    96    1
    42    27    28   ar
    43    28    29   ar
    44    29    30   ar
    45    29    31    1
    46    30    33    1
    47    31    32    1
    48    32    33    1
    49    32    35    1
    50    34    97    1
    51    34    98    1
    52    34    99    1
    53    35    61    1
    54    36    37    1
    55    36    60    1
    56    37    38    1
    57    38    39    1
    58    39    40    1
    59    40    41    1
    60    41    42    1
    61    45   100    1
    62    47   101    1
    63    47   102    1
    64    47   103    1
    65    48   104    1
    66    49   105    1
    67    49   106    1
    68    49   107    1
    69    50   108    1
    70    51    59    1
    71    52   109    1
    72    52   110    1
    73    52   111    1
    74    53    54    1
    75    54    55    2
    76    54    56    1
    77    56   112    1
    78    56   113    1
    79    56   114    1
    80    57   115    1
    81    57   116    1
    82    57   117    1
    83    58   118    1
    84    58   119    1
    85    58   120    1
    86    59   121    1
    87    59   122    1
    88    59   123    1
    89    60    61    2
    90     1    47    1
    91     1    62    1
    92     2    63    1
    93     3    64    1
    94     4    65    1
    95     5     6    1
    96     7     8    2
    97     9    78    1
    98    15    79    1
    99    18    80    1
   100    18    81    1
   101    19    82    1
   102    19    83    1
   103    20    23    1
   104    21    84    1
   105    21    85    1
   106    22    86    1
   107    22    87    1
   108    27    45    1
   109    28    34    1
   110    32    58    1
   111    33    46    2
   112    36    51    1
   113    36    66    1
   114    37    52    1
   115    37    67    1
   116    38    53    1
   117    38    68    1
   118    42    48    1
   119    42    72    1
   120    43    44    2
   121    60    73    1
   122    61    74    1
   123    39    69    1
   124    39    57    1
   125    40    70    1
   126    40    50    1
   127    41    71    1
   128    41    49    1
