@<TRIPOS>MOLECULE
*****
 123 128 0 0 0
SMALL
GASTEIGER

@<TRIPOS>ATOM
     1 C         -1.562275   -4.342801   2.522757 C.3        1 UNL1     0.0009
     2 C         -2.942557   -5.56497   2.718108 C.2        1 UNL1     -0.0787
     3 C         -4.186021   -5.966305   3.341625 C.2        1 UNL1     -0.0649
     4 C         -5.146435   -7.311873   2.976376 C.2        1 UNL1     -0.0542
     5 C         -6.440483   -7.878347   3.08419 C.2        1 UNL1     0.0115
     6 C         -7.831061   -7.716249   3.757495 C.3        1 UNL1     -0.0348
     7 C         -6.838729   -9.095659   2.116439 C.2        1 UNL1     0.2441
     8 O         -6.858884   -10.261287   2.487154 O.2        1 UNL1     -0.2702
     9 N         -7.413528   -8.711293   0.892503 N.am        1 UNL1     -0.2772
     10 C         -6.435231   -8.495802   -0.0508 C.2        1 UNL1     0.1049
     11 C         -5.854126   -7.31008   -0.026275 C.2        1 UNL1     0.0801
     12 C         -4.386183   -9.522045   -1.053575 C.ar        1 UNL1     0.0753
     13 C         -3.73622   -8.269905   -0.812119 C.ar        1 UNL1     0.0305
     14 C         -4.487585   -7.082564   -0.411214 C.2        1 UNL1     0.0924
     15 N         -6.199917   -6.192147   0.634921 N.pl3        1 UNL1     -0.3170
     16 C         -5.337196   -5.131645   0.186254 C.3        1 UNL1     0.1275
     17 N         -4.070417   -5.830975   -0.24262 N.2        1 UNL1     -0.2557
     18 C         -5.953377   -4.554554   -1.084568 C.3        1 UNL1     0.0016
     19 C         -7.377727   -4.118689   -0.779876 C.3        1 UNL1     0.0026
     20 N         -7.34533   -3.125254   0.284579 N.3        1 UNL1     -0.3018
     21 C         -6.714197   -3.568286   1.529474 C.3        1 UNL1     0.0026
     22 C         -5.283103   -3.997079   1.200839 C.3        1 UNL1     0.0016
     23 C         -8.606524   -2.429352   0.445063 C.3        1 UNL1     0.0012
     24 C         -9.076985   -1.850353   -0.898509 C.3        1 UNL1     -0.0339
     25 C         -8.127637   -2.241815   -2.042866 C.3        1 UNL1     -0.0615
     26 C         -10.504022   -2.28605   -1.182256 C.3        1 UNL1     -0.0615
     27 C         -3.682613   -10.616287   -1.551313 C.ar        1 UNL1     0.1347
     28 C         -2.340051   -10.567788   -1.881809 C.ar        1 UNL1     0.0342
     29 C         -1.709909   -9.339453   -1.589789 C.ar        1 UNL1     0.1435
     30 C         -2.393898   -8.245913   -1.057295 C.ar        1 UNL1     0.0774
     31 O         -0.431863   -9.098604   -1.955299 O.3        1 UNL1     -0.4436
     32 C         -0.311547   -7.668263   -1.932474 C.3        1 UNL1     0.3143
     33 C         -1.400891   -7.194044   -0.99191 C.2        1 UNL1     0.2504
     34 C         -1.582691   -11.61504   -2.649773 C.3        1 UNL1     -0.0327
     35 O         0.941276   -7.356032   -1.311027 O.2        1 UNL1     -0.4528
     36 C         2.086303   -4.086519   -2.86257 C.3        1 UNL1     0.0854
     37 C         1.347546   -2.693874   -2.910549 C.3        1 UNL1     0.0236
     38 C         2.187775   -1.462387   -2.319618 C.3        1 UNL1     0.1131
     39 C         2.849982   -1.578856   -0.887771 C.3        1 UNL1     0.0200
     40 C         2.000696   -2.244513   0.384256 C.3        1 UNL1     0.0661
     41 C         0.426131   -1.824802   0.855634 C.3        1 UNL1     0.0091
     42 C         -0.902734   -2.842984   1.605852 C.3        1 UNL1     0.0661
     43 C         -5.853256   -9.590936   -0.840953 C.2        1 UNL1     0.2131
     44 O         -6.570167   -10.426735   -1.360775 O.2        1 UNL1     -0.2851
     45 O         -4.379972   -11.811437   -1.714845 O.3        1 UNL1     -0.5056
     46 O         -1.432003   -6.185846   -0.322267 O.2        1 UNL1     -0.2836
     47 C         -0.60107   -4.415844   3.73961 C.3        1 UNL1     -0.0566
     48 O         -1.224275   -1.850973   2.660196 O.3        1 UNL1     -0.3909
     49 C         -0.212061   -1.008921   -0.24643 C.3        1 UNL1     -0.0577
     50 O         2.154079   -3.649361   0.408692 O.3        1 UNL1     -0.3910
     51 O         3.306457   -4.112634   -2.156897 O.3        1 UNL1     -0.3753
     52 C         -0.190316   -2.842455   -2.670023 C.3        1 UNL1     -0.0564
     53 O         1.626811   -0.120311   -2.68905 O.3        1 UNL1     -0.4608
     54 C         2.100177   0.692316   -3.685791 C.2        1 UNL1     0.3042
     55 O         2.440113   0.361348   -4.821019 O.2        1 UNL1     -0.2512
     56 C         2.133685   2.146663   -3.311003 C.3        1 UNL1     0.0332
     57 C         4.367096   -2.041366   -1.094223 C.3        1 UNL1     -0.0567
     58 C         -0.639178   -7.178874   -3.362399 C.3        1 UNL1     0.0210
     59 C         4.469199   -3.928429   -2.963101 C.3        1 UNL1     0.0372
     60 C         1.266617   -5.215662   -2.344582 C.2        1 UNL1     -0.0208
     61 C         1.572824   -6.177501   -1.472889 C.2        1 UNL1     0.0882
     62 H         -1.130816   -4.983486   1.744248 H        1 UNL1     0.0365
     63 H         -2.597692   -6.36794   2.063297 H        1 UNL1     0.0576
     64 H         -4.719116   -5.308068   4.031293 H        1 UNL1     0.0615
     65 H         -4.497335   -7.934256   2.35445 H        1 UNL1     0.0622
     66 H         2.295807   -4.324236   -3.915017 H        1 UNL1     0.0645
     67 H         1.31727   -2.443347   -3.985202 H        1 UNL1     0.0362
     68 H         3.028375   -1.45543   -3.030157 H        1 UNL1     0.0741
     69 H         3.076406   -0.584342   -0.527101 H        1 UNL1     0.0359
     70 H         2.614137   -1.8845   1.232277 H        1 UNL1     0.0600
     71 H         0.651193   -1.039961   1.604186 H        1 UNL1     0.0348
     72 H         0.034892   -3.389444   1.783488 H        1 UNL1     0.0602
     73 H         0.35055   -5.256514   -2.879746 H        1 UNL1     0.0628
     74 H         2.46311   -6.178367   -0.843105 H        1 UNL1     0.1022
     75 H         -8.530124   -8.514956   3.410491 H        1 UNL1     0.0279
     76 H         -7.862858   -7.830623   4.838688 H        1 UNL1     0.0279
     77 H         -8.359001   -6.80871   3.429846 H        1 UNL1     0.0279
     78 H         -7.921167   -7.837238   1.012543 H        1 UNL1     0.1553
     79 H         -7.116879   -6.026349   1.007246 H        1 UNL1     0.1484
     80 H         -5.341354   -3.71171   -1.4278 H        1 UNL1     0.0317
     81 H         -5.949251   -5.294321   -1.892267 H        1 UNL1     0.0317
     82 H         -8.014808   -4.97232   -0.505367 H        1 UNL1     0.0428
     83 H         -7.798857   -3.712045   -1.699844 H        1 UNL1     0.0428
     84 H         -6.631207   -2.779822   2.28396 H        1 UNL1     0.0428
     85 H         -7.299433   -4.353621   2.027535 H        1 UNL1     0.0428
     86 H         -4.812965   -4.186784   2.147924 H        1 UNL1     0.0317
     87 H         -4.718487   -3.144816   0.803406 H        1 UNL1     0.0317
     88 H         -9.354084   -3.153448   0.794537 H        1 UNL1     0.0429
     89 H         -8.535121   -1.645985   1.210576 H        1 UNL1     0.0429
     90 H         -9.106217   -0.756574   -0.827762 H        1 UNL1     0.0308
     91 H         -7.115315   -1.866337   -1.865881 H        1 UNL1     0.0233
     92 H         -8.091973   -3.327352   -2.160959 H        1 UNL1     0.0233
     93 H         -8.451558   -1.839453   -3.010344 H        1 UNL1     0.0233
     94 H         -10.575526   -3.378965   -1.166172 H        1 UNL1     0.0233
     95 H         -11.174648   -1.892982   -0.413022 H        1 UNL1     0.0233
     96 H         -10.842418   -1.931957   -2.160047 H        1 UNL1     0.0233
     97 H         -1.716073   -12.606385   -2.227073 H        1 UNL1     0.0280
     98 H         -1.916932   -11.685736   -3.693105 H        1 UNL1     0.0280
     99 H         -0.506702   -11.375911   -2.637175 H        1 UNL1     0.0280
     100 H         -4.268589   -12.428857   -1.013411 H        1 UNL1     0.2922
     101 H         -1.150085   -4.741845   4.622765 H        1 UNL1     0.0236
     102 H         -0.05958   -3.486766   3.914501 H        1 UNL1     0.0236
     103 H         0.184619   -5.177317   3.601611 H        1 UNL1     0.0236
     104 H         -1.360299   -0.988239   2.221838 H        1 UNL1     0.2098
     105 H         0.190334   -1.200889   -1.237913 H        1 UNL1     0.0234
     106 H         -1.301189   -1.044878   -0.267286 H        1 UNL1     0.0234
     107 H         0.0   0.0   0.0 H        1 UNL1     0.0234
     108 H         2.975003   -3.860039   -0.076558 H        1 UNL1     0.2098
     109 H         -0.571898   -3.816338   -3.007156 H        1 UNL1     0.0234
     110 H         -0.480875   -2.676166   -1.62711 H        1 UNL1     0.0234
     111 H         -0.761971   -2.089592   -3.228909 H        1 UNL1     0.0234
     112 H         1.124836   2.490483   -3.063296 H        1 UNL1     0.0342
     113 H         2.825203   2.342957   -2.493008 H        1 UNL1     0.0342
     114 H         2.479427   2.717938   -4.183511 H        1 UNL1     0.0342
     115 H         4.900149   -1.389951   -1.800411 H        1 UNL1     0.0234
     116 H         4.950872   -2.073288   -0.172141 H        1 UNL1     0.0234
     117 H         4.464346   -3.021034   -1.592957 H        1 UNL1     0.0234
     118 H         0.183637   -7.38388   -4.069474 H        1 UNL1     0.0309
     119 H         -1.566808   -7.603011   -3.759657 H        1 UNL1     0.0309
     120 H         -0.754917   -6.090939   -3.418146 H        1 UNL1     0.0309
     121 H         5.088214   -4.818924   -2.857291 H        1 UNL1     0.0524
     122 H         4.223781   -3.819906   -4.032695 H        1 UNL1     0.0524
     123 H         5.017781   -3.049594   -2.636297 H        1 UNL1     0.0524
@<TRIPOS>BOND
     1     1     2    1
     2     1    42    1
     3     2     3    2
     4     3     4    1
     5     4     5    2
     6     5     7    1
     7     6    75    1
     8     6    76    1
     9     6    77    1
    10     7     9   am
    11     9    10    1
    12    10    11    2
    13    10    43    1
    14    11    14    1
    15    11    15    1
    16    12    13   ar
    17    12    27   ar
    18    12    43    1
    19    13    14    1
    20    13    30   ar
    21    14    17    2
    22    15    16    1
    23    16    17    1
    24    16    18    1
    25    16    22    1
    26    18    19    1
    27    19    20    1
    28    20    21    1
    29    21    22    1
    30    23    24    1
    31    23    88    1
    32    23    89    1
    33    24    25    1
    34    24    26    1
    35    24    90    1
    36    25    91    1
    37    25    92    1
    38    25    93    1
    39    26    94    1
    40    26    95    1
    41    26    96    1
    42    27    28   ar
    43    28    29   ar
    44    29    30   ar
    45    29    31    1
    46    30    33    1
    47    31    32    1
    48    32    33    1
    49    32    35    1
    50    34    97    1
    51    34    98    1
    52    34    99    1
    53    35    61    1
    54    36    37    1
    55    36    60    1
    56    37    38    1
    57    38    39    1
    58    39    40    1
    59    40    41    1
    60    41    42    1
    61    45   100    1
    62    47   101    1
    63    47   102    1
    64    47   103    1
    65    48   104    1
    66    49   105    1
    67    49   106    1
    68    49   107    1
    69    50   108    1
    70    51    59    1
    71    52   109    1
    72    52   110    1
    73    52   111    1
    74    53    54    1
    75    54    55    2
    76    54    56    1
    77    56   112    1
    78    56   113    1
    79    56   114    1
    80    57   115    1
    81    57   116    1
    82    57   117    1
    83    58   118    1
    84    58   119    1
    85    58   120    1
    86    59   121    1
    87    59   122    1
    88    59   123    1
    89    60    61    2
    90     1    47    1
    91     1    62    1
    92     2    63    1
    93     3    64    1
    94     4    65    1
    95     5     6    1
    96     7     8    2
    97     9    78    1
    98    15    79    1
    99    18    80    1
   100    18    81    1
   101    19    82    1
   102    19    83    1
   103    20    23    1
   104    21    84    1
   105    21    85    1
   106    22    86    1
   107    22    87    1
   108    27    45    1
   109    28    34    1
   110    32    58    1
   111    33    46    2
   112    36    51    1
   113    36    66    1
   114    37    52    1
   115    37    67    1
   116    38    53    1
   117    38    68    1
   118    42    48    1
   119    42    72    1
   120    43    44    2
   121    60    73    1
   122    61    74    1
   123    39    69    1
   124    39    57    1
   125    40    70    1
   126    40    50    1
   127    41    71    1
   128    41    49    1
