@<TRIPOS>MOLECULE
*****
 123 128 0 0 0
SMALL
GASTEIGER

@<TRIPOS>ATOM
     1 C         5.168117   1.743575   0.500024 C.3        1 UNL1     0.0009
     2 C         6.606868   2.54867   -0.347829 C.2        1 UNL1     -0.0787
     3 C         7.889724   2.449551   -1.011533 C.2        1 UNL1     -0.0649
     4 C         8.76946   3.684123   -1.765359 C.2        1 UNL1     -0.0542
     5 C         9.791242   3.976144   -2.702249 C.2        1 UNL1     0.0115
     6 C         10.920276   3.349961   -3.566251 C.3        1 UNL1     -0.0348
     7 C         9.88885   5.459491   -3.308174 C.2        1 UNL1     0.2441
     8 O         10.712847   6.280308   -2.928946 O.2        1 UNL1     -0.2702
     9 N         9.140683   5.667451   -4.479989 N.am        1 UNL1     -0.2772
     10 C         7.857807   6.055165   -4.168175 C.2        1 UNL1     0.1049
     11 C         7.010705   5.08441   -3.877874 C.2        1 UNL1     0.0801
     12 C         6.558567   7.662549   -2.759052 C.ar        1 UNL1     0.0753
     13 C         5.797807   6.535171   -2.313102 C.ar        1 UNL1     0.0305
     14 C         5.914627   5.229553   -2.958677 C.2        1 UNL1     0.0924
     15 N         7.132416   3.755371   -4.037149 N.pl3        1 UNL1     -0.3170
     16 C         5.861531   3.157224   -3.725177 C.3        1 UNL1     0.1275
     17 N         5.224401   4.112735   -2.746 N.2        1 UNL1     -0.2557
     18 C         5.010758   3.217403   -4.990193 C.3        1 UNL1     0.0016
     19 C         5.766844   2.532973   -6.117791 C.3        1 UNL1     0.0026
     20 N         6.035161   1.154525   -5.731897 N.3        1 UNL1     -0.3018
     21 C         6.796394   0.993107   -4.491398 C.3        1 UNL1     0.0026
     22 C         6.016462   1.683988   -3.371451 C.3        1 UNL1     0.0016
     23 C         6.480724   0.334915   -6.841112 C.3        1 UNL1     0.0012
     24 C         5.325515   0.083095   -7.822863 C.3        1 UNL1     -0.0339
     25 C         5.349435   1.085546   -8.988443 C.3        1 UNL1     -0.0615
     26 C         5.366955   -1.351877   -8.318763 C.3        1 UNL1     -0.0615
     27 C         6.354155   8.930268   -2.219401 C.ar        1 UNL1     0.1347
     28 C         5.393799   9.200383   -1.260858 C.ar        1 UNL1     0.0342
     29 C         4.690509   8.066417   -0.801871 C.ar        1 UNL1     0.1435
     30 C         4.909637   6.784342   -1.307328 C.ar        1 UNL1     0.0774
     31 O         3.648255   8.180653   0.049987 O.3        1 UNL1     -0.4436
     32 C         2.925726   6.948507   -0.093676 C.3        1 UNL1     0.3143
     33 C         3.939001   5.954664   -0.62449 C.2        1 UNL1     0.2504
     34 C         4.947455   10.566753   -0.820507 C.3        1 UNL1     -0.0327
     35 O         2.562608   6.511752   1.221863 O.2        1 UNL1     -0.4528
     36 C         -0.681493   4.58252   0.819415 C.3        1 UNL1     0.0854
     37 C         -0.986473   3.322456   -0.078776 C.3        1 UNL1     0.0236
     38 C         -1.589387   2.061718   0.707849 C.3        1 UNL1     0.1131
     39 C         -0.866168   1.529785   2.010258 C.3        1 UNL1     0.0200
     40 C         0.794828   1.382772   2.05403 C.3        1 UNL1     0.0661
     41 C         1.755383   0.613426   0.886531 C.3        1 UNL1     0.0091
     42 C         3.464183   0.974643   0.325346 C.3        1 UNL1     0.0661
     43 C         7.51021   7.454325   -3.878552 C.2        1 UNL1     0.2131
     44 O         7.912023   8.352251   -4.596196 O.2        1 UNL1     -0.2851
     45 O         7.168057   9.964789   -2.676311 O.3        1 UNL1     -0.5056
     46 O         3.953727   4.75108   -0.494021 O.2        1 UNL1     -0.2836
     47 C         5.561815   1.313355   1.938736 C.3        1 UNL1     -0.0566
     48 O         3.911378   -0.436878   0.407456 O.3        1 UNL1     -0.3909
     49 C         0.922964   0.381908   -0.354828 C.3        1 UNL1     -0.0577
     50 O         1.39547   2.6   2.448124 O.3        1 UNL1     -0.3910
     51 O         -0.807959   4.392575   2.210586 O.3        1 UNL1     -0.3753
     52 C         0.059671   3.161382   -1.229684 C.3        1 UNL1     -0.0564
     53 O         -2.191471   1.023509   -0.19323 O.3        1 UNL1     -0.4608
     54 C         -2.41546   -0.286376   0.141371 C.2        1 UNL1     0.3042
     55 O         -1.843516   -1.279751   -0.30576 O.2        1 UNL1     -0.2512
     56 C         -3.446611   -0.463867   1.219303 C.3        1 UNL1     0.0332
     57 C         -1.58861   2.199069   3.27054 C.3        1 UNL1     -0.0567
     58 C         1.852469   7.194836   -1.17948 C.3        1 UNL1     0.0210
     59 C         -1.152216   5.565316   2.946814 C.3        1 UNL1     0.0372
     60 C         0.648419   5.210498   0.591079 C.2        1 UNL1     -0.0208
     61 C         1.560356   5.644694   1.46205 C.2        1 UNL1     0.0882
     62 H         4.692924   2.728143   0.586803 H        1 UNL1     0.0365
     63 H         6.341381   3.602674   -0.242662 H        1 UNL1     0.0576
     64 H         8.346878   1.482359   -1.232116 H        1 UNL1     0.0615
     65 H         8.282634   4.599855   -1.419066 H        1 UNL1     0.0622
     66 H         -1.424994   5.329786   0.508213 H        1 UNL1     0.0645
     67 H         -1.850779   3.632746   -0.691357 H        1 UNL1     0.0362
     68 H         -2.536629   2.499334   1.058203 H        1 UNL1     0.0741
     69 H         -1.198889   0.518927   2.204863 H        1 UNL1     0.0359
     70 H         0.904627   0.722108   2.935238 H        1 UNL1     0.0600
     71 H         1.797391   -0.407891   1.313268 H        1 UNL1     0.0348
     72 H         3.35718   1.46268   1.304982 H        1 UNL1     0.0602
     73 H         0.768129   5.407919   -0.445233 H        1 UNL1     0.0628
     74 H         1.540932   5.433762   2.531801 H        1 UNL1     0.1022
     75 H         10.963542   2.244603   -3.413458 H        1 UNL1     0.0279
     76 H         10.808423   3.433136   -4.644973 H        1 UNL1     0.0279
     77 H         11.925101   3.653693   -3.237961 H        1 UNL1     0.0279
     78 H         9.078747   4.797696   -5.005125 H        1 UNL1     0.1553
     79 H         7.798285   3.326957   -4.653601 H        1 UNL1     0.1484
     80 H         4.048739   2.727265   -4.797708 H        1 UNL1     0.0317
     81 H         4.785491   4.254427   -5.261279 H        1 UNL1     0.0317
     82 H         6.698365   3.06352   -6.364165 H        1 UNL1     0.0428
     83 H         5.143151   2.588902   -7.0105 H        1 UNL1     0.0428
     84 H         6.915306   -0.050032   -4.182315 H        1 UNL1     0.0428
     85 H         7.826973   1.360259   -4.593491 H        1 UNL1     0.0428
     86 H         6.531228   1.432932   -2.462619 H        1 UNL1     0.0317
     87 H         5.0364   1.207182   -3.248035 H        1 UNL1     0.0317
     88 H         7.27591   0.877521   -7.368893 H        1 UNL1     0.0429
     89 H         6.914761   -0.609983   -6.48961 H        1 UNL1     0.0429
     90 H         4.37258   0.188767   -7.290922 H        1 UNL1     0.0308
     91 H         6.298336   1.041662   -9.531365 H        1 UNL1     0.0233
     92 H         4.529335   0.889769   -9.68322 H        1 UNL1     0.0233
     93 H         5.223614   2.121465   -8.650988 H        1 UNL1     0.0233
     94 H         4.670738   -1.483047   -9.154174 H        1 UNL1     0.0233
     95 H         6.371629   -1.594921   -8.675864 H        1 UNL1     0.0233
     96 H         5.093739   -2.055578   -7.527481 H        1 UNL1     0.0233
     97 H         4.152904   10.51748   -0.081933 H        1 UNL1     0.0280
     98 H         5.759965   11.135959   -0.350309 H        1 UNL1     0.0280
     99 H         4.575648   11.13184   -1.69087 H        1 UNL1     0.0280
     100 H         6.702193   10.715632   -3.000082 H        1 UNL1     0.2922
     101 H         4.697824   0.880345   2.4424 H        1 UNL1     0.0236
     102 H         6.012388   2.118154   2.51862 H        1 UNL1     0.0236
     103 H         6.317359   0.510021   1.938623 H        1 UNL1     0.0236
     104 H         4.329421   -0.56346   1.281634 H        1 UNL1     0.2098
     105 H         0.712488   1.280991   -0.928553 H        1 UNL1     0.0234
     106 H         1.292382   -0.406652   -1.010291 H        1 UNL1     0.0234
     107 H         0.0   -0.0   0.0 H        1 UNL1     0.0234
     108 H         1.196199   3.259337   1.755785 H        1 UNL1     0.2098
     109 H         1.083805   3.046909   -0.8479 H        1 UNL1     0.0234
     110 H         -0.172424   2.33466   -1.909688 H        1 UNL1     0.0234
     111 H         0.082669   4.044344   -1.882215 H        1 UNL1     0.0234
     112 H         -3.573252   -1.527766   1.441627 H        1 UNL1     0.0342
     113 H         -3.198719   0.09658   2.119466 H        1 UNL1     0.0342
     114 H         -4.405614   -0.081981   0.84295 H        1 UNL1     0.0342
     115 H         -2.653088   1.931563   3.320707 H        1 UNL1     0.0234
     116 H         -1.138812   1.937885   4.230495 H        1 UNL1     0.0234
     117 H         -1.648018   3.299432   3.210424 H        1 UNL1     0.0234
     118 H         0.951173   7.682427   -0.768474 H        1 UNL1     0.0309
     119 H         2.223689   7.78271   -2.02494 H        1 UNL1     0.0309
     120 H         1.463752   6.263326   -1.605268 H        1 UNL1     0.0309
     121 H         -0.348624   6.288374   2.809762 H        1 UNL1     0.0524
     122 H         -2.08305   6.030331   2.581646 H        1 UNL1     0.0524
     123 H         -1.266739   5.327451   4.000568 H        1 UNL1     0.0524
@<TRIPOS>BOND
     1     1     2    1
     2     1    42    1
     3     2     3    2
     4     3     4    1
     5     4     5    2
     6     5     7    1
     7     6    75    1
     8     6    76    1
     9     6    77    1
    10     7     9   am
    11     9    10    1
    12    10    11    2
    13    10    43    1
    14    11    14    1
    15    11    15    1
    16    12    13   ar
    17    12    27   ar
    18    12    43    1
    19    13    14    1
    20    13    30   ar
    21    14    17    2
    22    15    16    1
    23    16    17    1
    24    16    18    1
    25    16    22    1
    26    18    19    1
    27    19    20    1
    28    20    21    1
    29    21    22    1
    30    23    24    1
    31    23    88    1
    32    23    89    1
    33    24    25    1
    34    24    26    1
    35    24    90    1
    36    25    91    1
    37    25    92    1
    38    25    93    1
    39    26    94    1
    40    26    95    1
    41    26    96    1
    42    27    28   ar
    43    28    29   ar
    44    29    30   ar
    45    29    31    1
    46    30    33    1
    47    31    32    1
    48    32    33    1
    49    32    35    1
    50    34    97    1
    51    34    98    1
    52    34    99    1
    53    35    61    1
    54    36    37    1
    55    36    60    1
    56    37    38    1
    57    38    39    1
    58    39    40    1
    59    40    41    1
    60    41    42    1
    61    45   100    1
    62    47   101    1
    63    47   102    1
    64    47   103    1
    65    48   104    1
    66    49   105    1
    67    49   106    1
    68    49   107    1
    69    50   108    1
    70    51    59    1
    71    52   109    1
    72    52   110    1
    73    52   111    1
    74    53    54    1
    75    54    55    2
    76    54    56    1
    77    56   112    1
    78    56   113    1
    79    56   114    1
    80    57   115    1
    81    57   116    1
    82    57   117    1
    83    58   118    1
    84    58   119    1
    85    58   120    1
    86    59   121    1
    87    59   122    1
    88    59   123    1
    89    60    61    2
    90     1    47    1
    91     1    62    1
    92     2    63    1
    93     3    64    1
    94     4    65    1
    95     5     6    1
    96     7     8    2
    97     9    78    1
    98    15    79    1
    99    18    80    1
   100    18    81    1
   101    19    82    1
   102    19    83    1
   103    20    23    1
   104    21    84    1
   105    21    85    1
   106    22    86    1
   107    22    87    1
   108    27    45    1
   109    28    34    1
   110    32    58    1
   111    33    46    2
   112    36    51    1
   113    36    66    1
   114    37    52    1
   115    37    67    1
   116    38    53    1
   117    38    68    1
   118    42    48    1
   119    42    72    1
   120    43    44    2
   121    60    73    1
   122    61    74    1
   123    39    69    1
   124    39    57    1
   125    40    70    1
   126    40    50    1
   127    41    71    1
   128    41    49    1
