@<TRIPOS>MOLECULE
*****
 123 128 0 0 0
SMALL
GASTEIGER

@<TRIPOS>ATOM
     1 C         1.42046   -3.02619   4.338633 C.3        1 UNL1     0.0009
     2 C         2.763301   -4.014318   5.149446 C.2        1 UNL1     -0.0787
     3 C         3.360949   -5.292407   5.474026 C.2        1 UNL1     -0.0649
     4 C         4.840512   -5.583827   6.243652 C.2        1 UNL1     -0.0542
     5 C         5.863449   -6.537456   6.47008 C.2        1 UNL1     0.0115
     6 C         6.249251   -8.032035   6.294827 C.3        1 UNL1     -0.0348
     7 C         7.293396   -6.032632   6.996761 C.2        1 UNL1     0.2441
     8 O         7.647814   -6.137227   8.16294 O.2        1 UNL1     -0.2702
     9 N         8.210869   -5.702181   5.984241 N.am        1 UNL1     -0.2772
     10 C         8.064395   -4.384858   5.614746 C.2        1 UNL1     0.1049
     11 C         7.107782   -4.128327   4.741073 C.2        1 UNL1     0.0801
     12 C         7.885314   -2.071032   6.548273 C.ar        1 UNL1     0.0753
     13 C         6.721395   -1.915368   5.729939 C.ar        1 UNL1     0.0305
     14 C         6.37246   -2.893359   4.701918 C.2        1 UNL1     0.0924
     15 N         6.379743   -4.968534   3.985732 N.pl3        1 UNL1     -0.3170
     16 C         5.594501   -4.175001   3.078013 C.3        1 UNL1     0.1275
     17 N         5.399301   -2.861881   3.795884 N.2        1 UNL1     -0.2557
     18 C         6.472713   -3.869848   1.868333 C.3        1 UNL1     0.0016
     19 C         6.970453   -5.18275   1.285123 C.3        1 UNL1     0.0026
     20 N         5.82048   -5.992381   0.906852 N.3        1 UNL1     -0.3018
     21 C         4.883422   -6.287168   1.99285 C.3        1 UNL1     0.0026
     22 C         4.392548   -4.954429   2.560955 C.3        1 UNL1     0.0016
     23 C         6.176838   -7.123974   0.074296 C.3        1 UNL1     0.0012
     24 C         6.605261   -6.650466   -1.32356 C.3        1 UNL1     -0.0339
     25 C         8.135997   -6.634452   -1.467247 C.3        1 UNL1     -0.0615
     26 C         5.952828   -7.514474   -2.388737 C.3        1 UNL1     -0.0615
     27 C         8.277805   -1.076934   7.441491 C.ar        1 UNL1     0.1347
     28 C         7.611547   0.128155   7.575322 C.ar        1 UNL1     0.0342
     29 C         6.440948   0.238976   6.795206 C.ar        1 UNL1     0.1435
     30 C         6.015391   -0.76345   5.922702 C.ar        1 UNL1     0.0774
     31 O         5.742934   1.393869   6.73191 O.3        1 UNL1     -0.4436
     32 C         4.957849   1.278015   5.535627 C.3        1 UNL1     0.3143
     33 C         4.840308   -0.211236   5.281605 C.2        1 UNL1     0.2504
     34 C         8.111508   1.333975   8.321068 C.3        1 UNL1     -0.0327
     35 O         3.641563   1.754111   5.842181 O.2        1 UNL1     -0.4528
     36 C         2.274433   3.190449   2.60552 C.3        1 UNL1     0.0854
     37 C         2.090345   2.490467   1.204213 C.3        1 UNL1     0.0236
     38 C         0.604704   2.559298   0.604316 C.3        1 UNL1     0.1131
     39 C         -0.624238   2.120914   1.498627 C.3        1 UNL1     0.0200
     40 C         -0.539512   0.742113   2.433596 C.3        1 UNL1     0.0661
     41 C         -0.040784   -0.78971   1.902181 C.3        1 UNL1     0.0091
     42 C         0.833566   -2.132656   2.795159 C.3        1 UNL1     0.0661
     43 C         8.711294   -3.28786   6.349913 C.2        1 UNL1     0.2131
     44 O         9.883841   -3.364822   6.669207 O.2        1 UNL1     -0.2851
     45 O         9.396455   -1.326614   8.233778 O.3        1 UNL1     -0.5056
     46 O         3.962829   -0.809548   4.700308 O.2        1 UNL1     -0.2836
     47 C         0.11314   -3.107311   5.17189 C.3        1 UNL1     -0.0566
     48 O         -0.087232   -3.197386   2.328685 O.3        1 UNL1     -0.3909
     49 C         0.63263   -0.643797   0.55581 C.3        1 UNL1     -0.0577
     50 O         0.032537   1.025993   3.694506 O.3        1 UNL1     -0.3910
     51 O         1.092071   3.631749   3.233777 O.3        1 UNL1     -0.3753
     52 C         2.982605   1.21343   1.070055 C.3        1 UNL1     -0.0564
     53 O         0.528747   2.209535   -0.853155 O.3        1 UNL1     -0.4608
     54 C         -0.596802   1.789529   -1.512446 C.2        1 UNL1     0.3042
     55 O         -0.818368   0.670647   -1.973802 O.2        1 UNL1     -0.2512
     56 C         -1.6675   2.839318   -1.603347 C.3        1 UNL1     0.0332
     57 C         -1.226956   3.441244   2.170665 C.3        1 UNL1     -0.0567
     58 C         5.794076   1.913258   4.40041 C.3        1 UNL1     0.0210
     59 C         1.262928   4.729264   4.129396 C.3        1 UNL1     0.0372
     60 C         3.023923   2.392178   3.613581 C.2        1 UNL1     -0.0208
     61 C         2.769956   2.171805   4.904194 C.2        1 UNL1     0.0882
     62 H         1.933821   -2.108587   4.650363 H        1 UNL1     0.0365
     63 H         3.334862   -3.220812   5.635385 H        1 UNL1     0.0576
     64 H         2.956853   -6.228993   5.083358 H        1 UNL1     0.0615
     65 H         5.113155   -4.610803   6.661231 H        1 UNL1     0.0622
     66 H         2.897611   4.070888   2.394518 H        1 UNL1     0.0645
     67 H         2.640182   3.143275   0.504155 H        1 UNL1     0.0362
     68 H         0.504786   3.648939   0.485059 H        1 UNL1     0.0741
     69 H         -1.469197   1.918715   0.853982 H        1 UNL1     0.0359
     70 H         -1.614985   0.589282   2.64587 H        1 UNL1     0.0600
     71 H         -1.018483   -1.220798   1.610249 H        1 UNL1     0.0348
     72 H         0.402442   -1.483282   3.570891 H        1 UNL1     0.0602
     73 H         3.944276   2.072417   3.191737 H        1 UNL1     0.0628
     74 H         1.828625   2.415645   5.397828 H        1 UNL1     0.1022
     75 H         5.434282   -8.588596   5.772238 H        1 UNL1     0.0279
     76 H         7.113788   -8.239658   5.668299 H        1 UNL1     0.0279
     77 H         6.302155   -8.572555   7.251248 H        1 UNL1     0.0279
     78 H         8.031767   -6.273043   5.160762 H        1 UNL1     0.1553
     79 H         6.649016   -5.914652   3.787525 H        1 UNL1     0.1484
     80 H         5.886782   -3.302478   1.13516 H        1 UNL1     0.0317
     81 H         7.320438   -3.236124   2.150125 H        1 UNL1     0.0317
     82 H         7.619108   -5.721928   1.991131 H        1 UNL1     0.0428
     83 H         7.59595   -4.941917   0.425006 H        1 UNL1     0.0428
     84 H         3.989605   -6.827799   1.66632 H        1 UNL1     0.0428
     85 H         5.330525   -6.944418   2.751427 H        1 UNL1     0.0428
     86 H         3.614287   -5.205664   3.257504 H        1 UNL1     0.0317
     87 H         3.864734   -4.387664   1.78424 H        1 UNL1     0.0317
     88 H         7.024748   -7.63974   0.543687 H        1 UNL1     0.0429
     89 H         5.354298   -7.848096   0.012254 H        1 UNL1     0.0429
     90 H         6.228291   -5.634358   -1.489789 H        1 UNL1     0.0308
     91 H         8.564614   -7.621005   -1.26699 H        1 UNL1     0.0233
     92 H         8.426479   -6.314169   -2.470565 H        1 UNL1     0.0233
     93 H         8.613387   -5.93315   -0.772186 H        1 UNL1     0.0233
     94 H         6.430785   -7.342832   -3.359269 H        1 UNL1     0.0233
     95 H         6.07187   -8.571945   -2.136653 H        1 UNL1     0.0233
     96 H         4.886325   -7.292347   -2.484656 H        1 UNL1     0.0233
     97 H         7.428387   2.174366   8.241583 H        1 UNL1     0.0280
     98 H         8.22405   1.138749   9.395534 H        1 UNL1     0.0280
     99 H         9.08765   1.642247   7.912155 H        1 UNL1     0.0280
     100 H         10.052426   -0.652304   8.208648 H        1 UNL1     0.2922
     101 H         -0.652569   -2.479539   4.716645 H        1 UNL1     0.0236
     102 H         0.261119   -2.872761   6.225489 H        1 UNL1     0.0236
     103 H         -0.318239   -4.122243   5.167834 H        1 UNL1     0.0236
     104 H         -0.774547   -3.313831   3.013528 H        1 UNL1     0.2098
     105 H         1.619296   -0.189004   0.594094 H        1 UNL1     0.0234
     106 H         0.659761   -1.555423   -0.040956 H        1 UNL1     0.0234
     107 H         0.0   0.0   -0.0 H        1 UNL1     0.0234
     108 H         0.972277   1.245104   3.544019 H        1 UNL1     0.2098
     109 H         2.761961   0.468305   1.847112 H        1 UNL1     0.0234
     110 H         2.91629   0.743834   0.082723 H        1 UNL1     0.0234
     111 H         4.048968   1.451327   1.180602 H        1 UNL1     0.0234
     112 H         -2.542745   2.434421   -2.120406 H        1 UNL1     0.0342
     113 H         -1.939113   3.233052   -0.625062 H        1 UNL1     0.0342
     114 H         -1.279083   3.674583   -2.202205 H        1 UNL1     0.0342
     115 H         -1.540611   4.176481   1.416852 H        1 UNL1     0.0234
     116 H         -2.081635   3.256151   2.824357 H        1 UNL1     0.0234
     117 H         -0.48264   4.024106   2.740057 H        1 UNL1     0.0234
     118 H         5.683387   3.011319   4.368536 H        1 UNL1     0.0309
     119 H         6.857919   1.662064   4.458235 H        1 UNL1     0.0309
     120 H         5.461441   1.596908   3.405733 H        1 UNL1     0.0309
     121 H         1.895502   4.390298   4.94934 H        1 UNL1     0.0524
     122 H         1.768999   5.584487   3.651355 H        1 UNL1     0.0524
     123 H         0.299767   5.057293   4.509938 H        1 UNL1     0.0524
@<TRIPOS>BOND
     1     1     2    1
     2     1    42    1
     3     2     3    2
     4     3     4    1
     5     4     5    2
     6     5     7    1
     7     6    75    1
     8     6    76    1
     9     6    77    1
    10     7     9   am
    11     9    10    1
    12    10    11    2
    13    10    43    1
    14    11    14    1
    15    11    15    1
    16    12    13   ar
    17    12    27   ar
    18    12    43    1
    19    13    14    1
    20    13    30   ar
    21    14    17    2
    22    15    16    1
    23    16    17    1
    24    16    18    1
    25    16    22    1
    26    18    19    1
    27    19    20    1
    28    20    21    1
    29    21    22    1
    30    23    24    1
    31    23    88    1
    32    23    89    1
    33    24    25    1
    34    24    26    1
    35    24    90    1
    36    25    91    1
    37    25    92    1
    38    25    93    1
    39    26    94    1
    40    26    95    1
    41    26    96    1
    42    27    28   ar
    43    28    29   ar
    44    29    30   ar
    45    29    31    1
    46    30    33    1
    47    31    32    1
    48    32    33    1
    49    32    35    1
    50    34    97    1
    51    34    98    1
    52    34    99    1
    53    35    61    1
    54    36    37    1
    55    36    60    1
    56    37    38    1
    57    38    39    1
    58    39    40    1
    59    40    41    1
    60    41    42    1
    61    45   100    1
    62    47   101    1
    63    47   102    1
    64    47   103    1
    65    48   104    1
    66    49   105    1
    67    49   106    1
    68    49   107    1
    69    50   108    1
    70    51    59    1
    71    52   109    1
    72    52   110    1
    73    52   111    1
    74    53    54    1
    75    54    55    2
    76    54    56    1
    77    56   112    1
    78    56   113    1
    79    56   114    1
    80    57   115    1
    81    57   116    1
    82    57   117    1
    83    58   118    1
    84    58   119    1
    85    58   120    1
    86    59   121    1
    87    59   122    1
    88    59   123    1
    89    60    61    2
    90     1    47    1
    91     1    62    1
    92     2    63    1
    93     3    64    1
    94     4    65    1
    95     5     6    1
    96     7     8    2
    97     9    78    1
    98    15    79    1
    99    18    80    1
   100    18    81    1
   101    19    82    1
   102    19    83    1
   103    20    23    1
   104    21    84    1
   105    21    85    1
   106    22    86    1
   107    22    87    1
   108    27    45    1
   109    28    34    1
   110    32    58    1
   111    33    46    2
   112    36    51    1
   113    36    66    1
   114    37    52    1
   115    37    67    1
   116    38    53    1
   117    38    68    1
   118    42    48    1
   119    42    72    1
   120    43    44    2
   121    60    73    1
   122    61    74    1
   123    39    69    1
   124    39    57    1
   125    40    70    1
   126    40    50    1
   127    41    71    1
   128    41    49    1
