@<TRIPOS>MOLECULE
*****
 123 128 0 0 0
SMALL
GASTEIGER

@<TRIPOS>ATOM
     1 C         5.119752   1.888287   0.48401 C.3        1 UNL1     0.0009
     2 C         6.515678   2.770386   -0.358801 C.2        1 UNL1     -0.0787
     3 C         7.793567   2.738545   -1.038529 C.2        1 UNL1     -0.0649
     4 C         8.615157   4.025192   -1.770572 C.2        1 UNL1     -0.0542
     5 C         9.613603   4.38045   -2.710772 C.2        1 UNL1     0.0115
     6 C         10.756184   3.820957   -3.602287 C.3        1 UNL1     -0.0348
     7 C         9.645672   5.880973   -3.280326 C.2        1 UNL1     0.2441
     8 O         10.441134   6.724199   -2.889513 O.2        1 UNL1     -0.2702
     9 N         8.876212   6.087929   -4.438451 N.am        1 UNL1     -0.2772
     10 C         7.582823   6.416718   -4.103245 C.2        1 UNL1     0.1049
     11 C         6.778026   5.406311   -3.82829 C.2        1 UNL1     0.0801
     12 C         6.237975   7.936174   -2.64038 C.ar        1 UNL1     0.0753
     13 C         5.527433   6.768901   -2.214689 C.ar        1 UNL1     0.0305
     14 C         5.687943   5.485233   -2.894016 C.2        1 UNL1     0.0924
     15 N         6.950046   4.087463   -4.022138 N.pl3        1 UNL1     -0.3170
     16 C         5.707421   3.431935   -3.711623 C.3        1 UNL1     0.1275
     17 N         5.044725   4.337048   -2.702005 N.2        1 UNL1     -0.2557
     18 C         4.840161   3.489503   -4.965516 C.3        1 UNL1     0.0016
     19 C         5.609309   2.863544   -6.117982 C.3        1 UNL1     0.0026
     20 N         5.936149   1.487722   -5.769679 N.3        1 UNL1     -0.3018
     21 C         6.717639   1.326083   -4.541869 C.3        1 UNL1     0.0026
     22 C         5.924321   1.957729   -3.396634 C.3        1 UNL1     0.0016
     23 C         6.400569   0.713977   -6.90382 C.3        1 UNL1     0.0012
     24 C         5.245673   0.44458   -7.881264 C.3        1 UNL1     -0.0339
     25 C         5.292805   1.400514   -9.084603 C.3        1 UNL1     -0.0615
     26 C         5.26398   -1.009046   -8.321058 C.3        1 UNL1     -0.0615
     27 C         5.990195   9.181123   -2.066946 C.ar        1 UNL1     0.1347
     28 C         5.031266   9.389288   -1.091666 C.ar        1 UNL1     0.0342
     29 C         4.378558   8.21739   -0.653727 C.ar        1 UNL1     0.1435
     30 C         4.642006   6.957841   -1.193497 C.ar        1 UNL1     0.0774
     31 O         3.342679   8.26923   0.21188 O.3        1 UNL1     -0.4436
     32 C         2.667543   7.01334   0.04514 C.3        1 UNL1     0.3143
     33 C         3.712833   6.073795   -0.521286 C.2        1 UNL1     0.2504
     34 C         4.536713   10.725643   -0.612422 C.3        1 UNL1     -0.0327
     35 O         2.33734   6.530272   1.35314 O.2        1 UNL1     -0.4528
     36 C         -0.832857   4.484535   0.937329 C.3        1 UNL1     0.0854
     37 C         -1.098546   3.235883   0.011154 C.3        1 UNL1     0.0236
     38 C         -1.642134   1.933257   0.772354 C.3        1 UNL1     0.1131
     39 C         -0.883325   1.398475   2.053169 C.3        1 UNL1     0.0200
     40 C         0.782568   1.316347   2.075388 C.3        1 UNL1     0.0661
     41 C         1.758884   0.614648   0.878711 C.3        1 UNL1     0.0091
     42 C         3.445453   1.05699   0.308429 C.3        1 UNL1     0.0661
     43 C         7.183877   7.793451   -3.774911 C.2        1 UNL1     0.2131
     44 O         7.541613   8.723994   -4.474091 O.2        1 UNL1     -0.2851
     45 O         6.757358   10.258016   -2.506492 O.3        1 UNL1     -0.5056
     46 O         3.776422   4.868892   -0.421203 O.2        1 UNL1     -0.2836
     47 C         5.546915   1.438696   1.907169 C.3        1 UNL1     -0.0566
     48 O         3.948759   -0.3373   0.350309 O.3        1 UNL1     -0.3909
     49 C         0.921716   0.38098   -0.359046 C.3        1 UNL1     -0.0577
     50 O         1.339443   2.546338   2.493402 O.3        1 UNL1     -0.3910
     51 O         -0.935429   4.25552   2.324579 O.3        1 UNL1     -0.3753
     52 C         -0.060446   3.144776   -1.154606 C.3        1 UNL1     -0.0564
     53 O         -2.213438   0.89452   -0.147952 O.3        1 UNL1     -0.4608
     54 C         -2.362584   -0.435032   0.148655 C.2        1 UNL1     0.3042
     55 O         -1.65508   -1.368331   -0.228479 O.2        1 UNL1     -0.2512
     56 C         -3.500761   -0.717782   1.087441 C.3        1 UNL1     0.0332
     57 C         -1.616705   2.007369   3.337527 C.3        1 UNL1     -0.0567
     58 C         1.572766   7.243626   -1.022551 C.3        1 UNL1     0.0210
     59 C         -1.286204   5.402679   3.097139 C.3        1 UNL1     0.0372
     60 C         0.468554   5.170139   0.710533 C.2        1 UNL1     -0.0208
     61 C         1.372857   5.618537   1.582266 C.2        1 UNL1     0.0882
     62 H         4.607248   2.850819   0.600551 H        1 UNL1     0.0365
     63 H         6.210186   3.810135   -0.224391 H        1 UNL1     0.0576
     64 H         8.285795   1.795949   -1.288194 H        1 UNL1     0.0615
     65 H         8.09678   4.912111   -1.396216 H        1 UNL1     0.0622
     66 H         -1.608776   5.209197   0.652971 H        1 UNL1     0.0645
     67 H         -1.981514   3.526683   -0.58413 H        1 UNL1     0.0362
     68 H         -2.601683   2.324241   1.14373 H        1 UNL1     0.0741
     69 H         -1.173719   0.370743   2.22593 H        1 UNL1     0.0359
     70 H         0.928597   0.639048   2.938523 H        1 UNL1     0.0600
     71 H         1.846037   -0.414403   1.279229 H        1 UNL1     0.0348
     72 H         3.330831   1.516129   1.301086 H        1 UNL1     0.0602
     73 H         0.568243   5.397612   -0.32173 H        1 UNL1     0.0628
     74 H         1.374293   5.380717   2.646539 H        1 UNL1     0.1022
     75 H         10.793196   2.706679   -3.538656 H        1 UNL1     0.0279
     76 H         10.664219   3.991553   -4.672571 H        1 UNL1     0.0279
     77 H         11.755824   4.092541   -3.232606 H        1 UNL1     0.0279
     78 H         8.842383   5.229601   -4.984534 H        1 UNL1     0.1553
     79 H         7.624977   3.701078   -4.656259 H        1 UNL1     0.1484
     80 H         3.900491   2.957046   -4.775055 H        1 UNL1     0.0317
     81 H         4.571112   4.52315   -5.208078 H        1 UNL1     0.0317
     82 H         6.516285   3.436485   -6.360972 H        1 UNL1     0.0428
     83 H         4.973472   2.916691   -7.002254 H        1 UNL1     0.0428
     84 H         6.88111   0.281178   -4.260335 H        1 UNL1     0.0428
     85 H         7.731709   1.736178   -4.645793 H        1 UNL1     0.0428
     86 H         6.459188   1.704954   -2.499967 H        1 UNL1     0.0317
     87 H         4.965289   1.439576   -3.274687 H        1 UNL1     0.0317
     88 H         7.169812   1.299162   -7.42451 H        1 UNL1     0.0429
     89 H         6.872756   -0.22281   -6.58095 H        1 UNL1     0.0429
     90 H         4.292288   0.587489   -7.358917 H        1 UNL1     0.0308
     91 H         6.304556   1.47438   -9.494488 H        1 UNL1     0.0233
     92 H         4.611071   1.066459   -9.870259 H        1 UNL1     0.0233
     93 H         4.980977   2.418584   -8.821674 H        1 UNL1     0.0233
     94 H         4.728609   -1.123378   -9.269816 H        1 UNL1     0.0233
     95 H         6.294975   -1.340267   -8.473711 H        1 UNL1     0.0233
     96 H         4.791522   -1.656924   -7.577414 H        1 UNL1     0.0233
     97 H         3.698214   10.628701   0.070771 H        1 UNL1     0.0280
     98 H         5.309034   11.280167   -0.063535 H        1 UNL1     0.0280
     99 H         4.211468   11.329828   -1.475134 H        1 UNL1     0.0280
     100 H         6.261469   11.024263   -2.7358 H        1 UNL1     0.2922
     101 H         4.679933   1.061922   2.449424 H        1 UNL1     0.0236
     102 H         6.07096   2.215579   2.462879 H        1 UNL1     0.0236
     103 H         6.250362   0.589817   1.879603 H        1 UNL1     0.0236
     104 H         4.294982   -0.499013   1.249725 H        1 UNL1     0.2098
     105 H         0.709306   1.279021   -0.933691 H        1 UNL1     0.0234
     106 H         1.288445   -0.408931   -1.014391 H        1 UNL1     0.0234
     107 H         0.0   -0.0   0.0 H        1 UNL1     0.0234
     108 H         1.163006   3.199066   1.788714 H        1 UNL1     0.2098
     109 H         0.972772   3.074041   -0.786952 H        1 UNL1     0.0234
     110 H         -0.260776   2.318985   -1.84575 H        1 UNL1     0.0234
     111 H         -0.088507   4.038377   -1.792286 H        1 UNL1     0.0234
     112 H         -3.551271   -1.790236   1.298716 H        1 UNL1     0.0342
     113 H         -3.42505   -0.141316   2.0082 H        1 UNL1     0.0342
     114 H         -4.436324   -0.428219   0.589404 H        1 UNL1     0.0342
     115 H         -2.698595   1.816713   3.318734 H        1 UNL1     0.0234
     116 H         -1.233356   1.630632   4.287875 H        1 UNL1     0.0234
     117 H         -1.595278   3.110136   3.374788 H        1 UNL1     0.0234
     118 H         0.563467   7.292367   -0.577642 H        1 UNL1     0.0309
     119 H         1.742346   8.141669   -1.625015 H        1 UNL1     0.0309
     120 H         1.496137   6.412487   -1.732087 H        1 UNL1     0.0309
     121 H         -0.898353   5.253016   4.104377 H        1 UNL1     0.0524
     122 H         -0.834509   6.327603   2.701508 H        1 UNL1     0.0524
     123 H         -2.365665   5.521367   3.124933 H        1 UNL1     0.0524
@<TRIPOS>BOND
     1     1     2    1
     2     1    42    1
     3     2     3    2
     4     3     4    1
     5     4     5    2
     6     5     7    1
     7     6    75    1
     8     6    76    1
     9     6    77    1
    10     7     9   am
    11     9    10    1
    12    10    11    2
    13    10    43    1
    14    11    14    1
    15    11    15    1
    16    12    13   ar
    17    12    27   ar
    18    12    43    1
    19    13    14    1
    20    13    30   ar
    21    14    17    2
    22    15    16    1
    23    16    17    1
    24    16    18    1
    25    16    22    1
    26    18    19    1
    27    19    20    1
    28    20    21    1
    29    21    22    1
    30    23    24    1
    31    23    88    1
    32    23    89    1
    33    24    25    1
    34    24    26    1
    35    24    90    1
    36    25    91    1
    37    25    92    1
    38    25    93    1
    39    26    94    1
    40    26    95    1
    41    26    96    1
    42    27    28   ar
    43    28    29   ar
    44    29    30   ar
    45    29    31    1
    46    30    33    1
    47    31    32    1
    48    32    33    1
    49    32    35    1
    50    34    97    1
    51    34    98    1
    52    34    99    1
    53    35    61    1
    54    36    37    1
    55    36    60    1
    56    37    38    1
    57    38    39    1
    58    39    40    1
    59    40    41    1
    60    41    42    1
    61    45   100    1
    62    47   101    1
    63    47   102    1
    64    47   103    1
    65    48   104    1
    66    49   105    1
    67    49   106    1
    68    49   107    1
    69    50   108    1
    70    51    59    1
    71    52   109    1
    72    52   110    1
    73    52   111    1
    74    53    54    1
    75    54    55    2
    76    54    56    1
    77    56   112    1
    78    56   113    1
    79    56   114    1
    80    57   115    1
    81    57   116    1
    82    57   117    1
    83    58   118    1
    84    58   119    1
    85    58   120    1
    86    59   121    1
    87    59   122    1
    88    59   123    1
    89    60    61    2
    90     1    47    1
    91     1    62    1
    92     2    63    1
    93     3    64    1
    94     4    65    1
    95     5     6    1
    96     7     8    2
    97     9    78    1
    98    15    79    1
    99    18    80    1
   100    18    81    1
   101    19    82    1
   102    19    83    1
   103    20    23    1
   104    21    84    1
   105    21    85    1
   106    22    86    1
   107    22    87    1
   108    27    45    1
   109    28    34    1
   110    32    58    1
   111    33    46    2
   112    36    51    1
   113    36    66    1
   114    37    52    1
   115    37    67    1
   116    38    53    1
   117    38    68    1
   118    42    48    1
   119    42    72    1
   120    43    44    2
   121    60    73    1
   122    61    74    1
   123    39    69    1
   124    39    57    1
   125    40    70    1
   126    40    50    1
   127    41    71    1
   128    41    49    1
