@<TRIPOS>MOLECULE
*****
 123 128 0 0 0
SMALL
GASTEIGER

@<TRIPOS>ATOM
     1 C         5.167533   1.747343   0.492615 C.3        1 UNL1     0.0009
     2 C         6.604532   2.553406   -0.357286 C.2        1 UNL1     -0.0787
     3 C         7.886475   2.455145   -1.022878 C.2        1 UNL1     -0.0649
     4 C         8.764327   3.690326   -1.777901 C.2        1 UNL1     -0.0542
     5 C         9.78455   3.98306   -2.716267 C.2        1 UNL1     0.0115
     6 C         10.91271   3.357651   -3.58197 C.3        1 UNL1     -0.0348
     7 C         9.880335   5.466512   -3.322224 C.2        1 UNL1     0.2441
     8 O         10.70437   6.28782   -2.944144 O.2        1 UNL1     -0.2702
     9 N         9.13032   5.674086   -4.492925 N.am        1 UNL1     -0.2772
     10 C         7.847658   6.060969   -4.179202 C.2        1 UNL1     0.1049
     11 C         7.001595   5.089659   -3.887731 C.2        1 UNL1     0.0801
     12 C         6.549473   7.667431   -2.768057 C.ar        1 UNL1     0.0753
     13 C         5.790079   6.539541   -2.321075 C.ar        1 UNL1     0.0305
     14 C         5.906775   5.234044   -2.966917 C.2        1 UNL1     0.0924
     15 N         7.123909   3.760709   -4.047283 N.pl3        1 UNL1     -0.3170
     16 C         5.853861   3.161738   -3.733493 C.3        1 UNL1     0.1275
     17 N         5.217565   4.116775   -2.753312 N.2        1 UNL1     -0.2557
     18 C         5.001195   3.221474   -4.997255 C.3        1 UNL1     0.0016
     19 C         5.756058   2.537603   -6.126012 C.3        1 UNL1     0.0026
     20 N         6.02581   1.159296   -5.740614 N.3        1 UNL1     -0.3018
     21 C         6.788962   0.998267   -4.501244 C.3        1 UNL1     0.0026
     22 C         6.010238   1.688575   -3.380103 C.3        1 UNL1     0.0016
     23 C         6.470262   0.340049   -6.850542 C.3        1 UNL1     0.0012
     24 C         5.314887   0.091211   -7.832857 C.3        1 UNL1     -0.0339
     25 C         5.340843   1.094803   -8.997411 C.3        1 UNL1     -0.0615
     26 C         5.353994   -1.343326   -8.330203 C.3        1 UNL1     -0.0615
     27 C         6.345054   8.934981   -2.228012 C.ar        1 UNL1     0.1347
     28 C         5.385935   9.20442   -1.268042 C.ar        1 UNL1     0.0342
     29 C         4.684033   8.069978   -0.808109 C.ar        1 UNL1     0.1435
     30 C         4.903227   6.788078   -1.313982 C.ar        1 UNL1     0.0774
     31 O         3.642957   8.183495   0.045286 O.3        1 UNL1     -0.4436
     32 C         2.920995   6.950904   -0.09741 C.3        1 UNL1     0.3143
     33 C         3.934117   5.957739   -0.629782 C.2        1 UNL1     0.2504
     34 C         4.939375   10.570477   -0.826936 C.3        1 UNL1     -0.0327
     35 O         2.560081   6.513824   1.218628 O.2        1 UNL1     -0.4528
     36 C         -0.68339   4.582578   0.820793 C.3        1 UNL1     0.0854
     37 C         -0.988892   3.322387   -0.077043 C.3        1 UNL1     0.0236
     38 C         -1.589858   2.061212   0.710372 C.3        1 UNL1     0.1131
     39 C         -0.864395   1.529639   2.01168 C.3        1 UNL1     0.0200
     40 C         0.796756   1.38367   2.053005 C.3        1 UNL1     0.0661
     41 C         1.756082   0.615015   0.884042 C.3        1 UNL1     0.0091
     42 C         3.463829   0.97735   0.320379 C.3        1 UNL1     0.0661
     43 C         7.499605   7.459889   -3.888965 C.2        1 UNL1     0.2131
     44 O         7.899799   8.35812   -4.607131 O.2        1 UNL1     -0.2851
     45 O         7.157633   9.970049   -2.686038 O.3        1 UNL1     -0.5056
     46 O         3.949792   4.754155   -0.499424 O.2        1 UNL1     -0.2836
     47 C         5.563611   1.317266   1.930717 C.3        1 UNL1     -0.0566
     48 O         3.912034   -0.433895   0.401728 O.3        1 UNL1     -0.3909
     49 C         0.92199   0.383064   -0.356112 C.3        1 UNL1     -0.0577
     50 O         1.397207   2.601247   2.446308 O.3        1 UNL1     -0.3910
     51 O         -0.807696   4.39245   2.212135 O.3        1 UNL1     -0.3753
     52 C         0.055664   3.162057   -1.229495 C.3        1 UNL1     -0.0564
     53 O         -2.192609   1.02269   -0.189901 O.3        1 UNL1     -0.4608
     54 C         -2.427384   -0.284121   0.149297 C.2        1 UNL1     0.3042
     55 O         -1.858481   -1.283241   -0.288821 O.2        1 UNL1     -0.2512
     56 C         -3.467574   -0.449877   1.220391 C.3        1 UNL1     0.0332
     57 C         -1.58541   2.198376   3.273069 C.3        1 UNL1     -0.0567
     58 C         1.845992   7.196636   -1.181621 C.3        1 UNL1     0.0210
     59 C         -1.151613   5.564921   2.948953 C.3        1 UNL1     0.0372
     60 C         0.64579   5.21141   0.590554 C.2        1 UNL1     -0.0208
     61 C         1.558729   5.646117   1.460219 C.2        1 UNL1     0.0882
     62 H         4.691847   2.731604   0.580164 H        1 UNL1     0.0365
     63 H         6.338535   3.607236   -0.251652 H        1 UNL1     0.0576
     64 H         8.343915   1.488257   -1.244203 H        1 UNL1     0.0615
     65 H         8.277432   4.605726   -1.430827 H        1 UNL1     0.0622
     66 H         -1.427817   5.329398   0.510738 H        1 UNL1     0.0645
     67 H         -1.854291   3.632178   -0.688333 H        1 UNL1     0.0362
     68 H         -2.536861   2.498205   1.062147 H        1 UNL1     0.0741
     69 H         -1.196194   0.518558   2.206697 H        1 UNL1     0.0359
     70 H         0.908263   0.723011   2.934002 H        1 UNL1     0.0600
     71 H         1.799359   -0.406306   1.310641 H        1 UNL1     0.0348
     72 H         3.357955   1.465248   1.300207 H        1 UNL1     0.0602
     73 H         0.763856   5.408982   -0.445918 H        1 UNL1     0.0628
     74 H         1.541006   5.435094   2.529982 H        1 UNL1     0.1022
     75 H         10.956897   2.25231   -3.429323 H        1 UNL1     0.0279
     76 H         10.799223   3.440835   -4.66052 H        1 UNL1     0.0279
     77 H         11.917824   3.661993   -3.25513 H        1 UNL1     0.0279
     78 H         9.068162   4.804331   -5.018034 H        1 UNL1     0.1553
     79 H         7.789143   3.33276   -4.664743 H        1 UNL1     0.1484
     80 H         4.039769   2.730716   -4.803396 H        1 UNL1     0.0317
     81 H         4.774878   4.258375   -5.267934 H        1 UNL1     0.0317
     82 H         6.686883   3.068755   -6.373712 H        1 UNL1     0.0428
     83 H         5.131022   2.593204   -7.017801 H        1 UNL1     0.0428
     84 H         6.908985   -0.044819   -4.192413 H        1 UNL1     0.0428
     85 H         7.819159   1.366076   -4.604821 H        1 UNL1     0.0428
     86 H         6.526494   1.437776   -2.472046 H        1 UNL1     0.0317
     87 H         5.030659   1.211142   -3.255286 H        1 UNL1     0.0317
     88 H         7.266522   0.881823   -7.377558 H        1 UNL1     0.0429
     89 H         6.90258   -0.60595   -6.499883 H        1 UNL1     0.0429
     90 H         4.361991   0.19798   -7.301064 H        1 UNL1     0.0308
     91 H         6.290999   1.052018   -9.53822 H        1 UNL1     0.0233
     92 H         4.522441   0.899201   -9.694237 H        1 UNL1     0.0233
     93 H         5.213627   2.130319   -8.659243 H        1 UNL1     0.0233
     94 H         4.657777   -1.47245   -9.165933 H        1 UNL1     0.0233
     95 H         6.358345   -1.587733   -8.687282 H        1 UNL1     0.0233
     96 H         5.079357   -2.04736   -7.53971 H        1 UNL1     0.0233
     97 H         4.145939   10.520649   -0.087201 H        1 UNL1     0.0280
     98 H         5.752216   11.14016   -0.357887 H        1 UNL1     0.0280
     99 H         4.565937   11.135393   -1.696711 H        1 UNL1     0.0280
     100 H         6.690827   10.720884   -3.008468 H        1 UNL1     0.2922
     101 H         4.700632   0.883674   2.435615 H        1 UNL1     0.0236
     102 H         6.014527   2.122306   2.51 H        1 UNL1     0.0236
     103 H         6.31966   0.514408   1.929436 H        1 UNL1     0.0236
     104 H         4.331437   -0.560278   1.275283 H        1 UNL1     0.2098
     105 H         0.709632   1.282138   -0.929158 H        1 UNL1     0.0234
     106 H         1.291257   -0.404833   -1.012457 H        1 UNL1     0.0234
     107 H         0.0   -0.0   0.0 H        1 UNL1     0.0234
     108 H         1.199499   3.259594   1.75258 H        1 UNL1     0.2098
     109 H         1.080428   3.048202   -0.849222 H        1 UNL1     0.0234
     110 H         -0.176907   2.335239   -1.90922 H        1 UNL1     0.0234
     111 H         0.077148   4.045081   -1.881994 H        1 UNL1     0.0234
     112 H         -3.600368   -1.511677   1.44907 H        1 UNL1     0.0342
     113 H         -3.224318   0.115779   2.118557 H        1 UNL1     0.0342
     114 H         -4.422036   -0.066667   0.833974 H        1 UNL1     0.0342
     115 H         -2.6551   1.950352   3.310972 H        1 UNL1     0.0234
     116 H         -1.14913   1.918191   4.233905 H        1 UNL1     0.0234
     117 H         -1.623731   3.300258   3.224799 H        1 UNL1     0.0234
     118 H         0.944993   7.683629   -0.769257 H        1 UNL1     0.0309
     119 H         2.215601   7.784806   -2.027581 H        1 UNL1     0.0309
     120 H         1.457238   6.264912   -1.606907 H        1 UNL1     0.0309
     121 H         -0.347188   6.287323   2.813337 H        1 UNL1     0.0524
     122 H         -2.081617   6.03112   2.583183 H        1 UNL1     0.0524
     123 H         -1.267474   5.326309   4.002392 H        1 UNL1     0.0524
@<TRIPOS>BOND
     1     1     2    1
     2     1    42    1
     3     2     3    2
     4     3     4    1
     5     4     5    2
     6     5     7    1
     7     6    75    1
     8     6    76    1
     9     6    77    1
    10     7     9   am
    11     9    10    1
    12    10    11    2
    13    10    43    1
    14    11    14    1
    15    11    15    1
    16    12    13   ar
    17    12    27   ar
    18    12    43    1
    19    13    14    1
    20    13    30   ar
    21    14    17    2
    22    15    16    1
    23    16    17    1
    24    16    18    1
    25    16    22    1
    26    18    19    1
    27    19    20    1
    28    20    21    1
    29    21    22    1
    30    23    24    1
    31    23    88    1
    32    23    89    1
    33    24    25    1
    34    24    26    1
    35    24    90    1
    36    25    91    1
    37    25    92    1
    38    25    93    1
    39    26    94    1
    40    26    95    1
    41    26    96    1
    42    27    28   ar
    43    28    29   ar
    44    29    30   ar
    45    29    31    1
    46    30    33    1
    47    31    32    1
    48    32    33    1
    49    32    35    1
    50    34    97    1
    51    34    98    1
    52    34    99    1
    53    35    61    1
    54    36    37    1
    55    36    60    1
    56    37    38    1
    57    38    39    1
    58    39    40    1
    59    40    41    1
    60    41    42    1
    61    45   100    1
    62    47   101    1
    63    47   102    1
    64    47   103    1
    65    48   104    1
    66    49   105    1
    67    49   106    1
    68    49   107    1
    69    50   108    1
    70    51    59    1
    71    52   109    1
    72    52   110    1
    73    52   111    1
    74    53    54    1
    75    54    55    2
    76    54    56    1
    77    56   112    1
    78    56   113    1
    79    56   114    1
    80    57   115    1
    81    57   116    1
    82    57   117    1
    83    58   118    1
    84    58   119    1
    85    58   120    1
    86    59   121    1
    87    59   122    1
    88    59   123    1
    89    60    61    2
    90     1    47    1
    91     1    62    1
    92     2    63    1
    93     3    64    1
    94     4    65    1
    95     5     6    1
    96     7     8    2
    97     9    78    1
    98    15    79    1
    99    18    80    1
   100    18    81    1
   101    19    82    1
   102    19    83    1
   103    20    23    1
   104    21    84    1
   105    21    85    1
   106    22    86    1
   107    22    87    1
   108    27    45    1
   109    28    34    1
   110    32    58    1
   111    33    46    2
   112    36    51    1
   113    36    66    1
   114    37    52    1
   115    37    67    1
   116    38    53    1
   117    38    68    1
   118    42    48    1
   119    42    72    1
   120    43    44    2
   121    60    73    1
   122    61    74    1
   123    39    69    1
   124    39    57    1
   125    40    70    1
   126    40    50    1
   127    41    71    1
   128    41    49    1
