@<TRIPOS>MOLECULE
*****
 123 128 0 0 0
SMALL
GASTEIGER

@<TRIPOS>ATOM
     1 C         -3.366898   2.758993   -0.202669 C.3        1 UNL1     0.0009
     2 C         -4.566723   3.366027   1.07364 C.2        1 UNL1     -0.0787
     3 C         -5.782035   3.188417   1.840137 C.2        1 UNL1     -0.0649
     4 C         -6.369657   4.156931   3.098326 C.2        1 UNL1     -0.0542
     5 C         -7.238148   4.20697   4.216492 C.2        1 UNL1     0.0115
     6 C         -8.372625   3.450937   4.961273 C.3        1 UNL1     -0.0348
     7 C         -7.029793   5.362778   5.310879 C.2        1 UNL1     0.2441
     8 O         -7.735507   6.360409   5.367687 O.2        1 UNL1     -0.2702
     9 N         -6.153585   5.03064   6.358779 N.am        1 UNL1     -0.2772
     10 C         -4.857723   5.344602   6.018937 C.2        1 UNL1     0.1049
     11 C         -4.215578   4.452519   5.286776 C.2        1 UNL1     0.0801
     12 C         -3.441284   7.184587   5.088622 C.ar        1 UNL1     0.0753
     13 C         -2.924372   6.21614   4.170188 C.ar        1 UNL1     0.0305
     14 C         -3.199195   4.789657   4.327254 C.2        1 UNL1     0.0924
     15 N         -4.543504   3.184144   4.986413 N.pl3        1 UNL1     -0.3170
     16 C         -3.424837   2.591161   4.302885 C.3        1 UNL1     0.1275
     17 N         -2.728462   3.753729   3.63864 N.2        1 UNL1     -0.2557
     18 C         -2.464201   2.07587   5.370291 C.3        1 UNL1     0.0016
     19 C         -3.218317   1.123111   6.284157 C.3        1 UNL1     0.0026
     20 N         -3.748185   0.028048   5.483467 N.3        1 UNL1     -0.3018
     21 C         -4.635677   0.429981   4.390225 C.3        1 UNL1     0.0026
     22 C         -3.856373   1.382926   3.482219 C.3        1 UNL1     0.0016
     23 C         -4.221852   -1.08079   6.287681 C.3        1 UNL1     0.0012
     24 C         -5.459626   -0.667396   7.099333 C.3        1 UNL1     -0.0339
     25 C         -5.690579   0.851483   7.038316 C.3        1 UNL1     -0.0615
     26 C         -6.677715   -1.437732   6.620145 C.3        1 UNL1     -0.0615
     27 C         -3.077174   8.526339   5.003509 C.ar        1 UNL1     0.1347
     28 C         -2.176638   9.009862   4.071151 C.ar        1 UNL1     0.0342
     29 C         -1.718433   8.047229   3.146731 C.ar        1 UNL1     0.1435
     30 C         -2.102515   6.706655   3.197326 C.ar        1 UNL1     0.0774
     31 O         -0.753925   8.337723   2.24654 O.3        1 UNL1     -0.4436
     32 C         -0.238319   7.060308   1.842517 C.3        1 UNL1     0.3143
     33 C         -1.351257   6.073907   2.133367 C.2        1 UNL1     0.2504
     34 C         -1.549437   10.376128   4.077174 C.3        1 UNL1     -0.0327
     35 O         -0.0752   7.09754   0.419402 O.2        1 UNL1     -0.4528
     36 C         2.822216   4.771595   -0.357158 C.3        1 UNL1     0.0854
     37 C         2.992121   3.24206   -0.011937 C.3        1 UNL1     0.0236
     38 C         3.300633   2.295639   -1.269257 C.3        1 UNL1     0.1131
     39 C         2.38264   2.374251   -2.555094 C.3        1 UNL1     0.0200
     40 C         0.723558   2.459664   -2.404791 C.3        1 UNL1     0.0661
     41 C         -0.241869   1.439168   -1.453923 C.3        1 UNL1     0.0091
     42 C         -1.807403   1.776026   -0.558919 C.3        1 UNL1     0.0661
     43 C         -4.308197   6.697749   6.190307 C.2        1 UNL1     0.2131
     44 O         -4.486477   7.310446   7.227397 O.2        1 UNL1     -0.2851
     45 O         -3.66083   9.411733   5.907312 O.3        1 UNL1     -0.5056
     46 O         -1.579556   5.014655   1.593257 O.2        1 UNL1     -0.2836
     47 C         -3.956806   2.940908   -1.627063 C.3        1 UNL1     -0.0566
     48 O         -2.490687   0.560664   -1.064028 O.3        1 UNL1     -0.3909
     49 C         0.649649   0.666049   -0.507892 C.3        1 UNL1     -0.0577
     50 O         0.302243   3.80053   -2.25548 O.3        1 UNL1     -0.3910
     51 O         2.787547   5.093291   -1.729288 O.3        1 UNL1     -0.3753
     52 C         2.043223   2.798754   1.149107 C.3        1 UNL1     -0.0564
     53 O         3.79966   0.932856   -0.887 O.3        1 UNL1     -0.4608
     54 C         3.284128   -0.256349   -1.331914 C.2        1 UNL1     0.3042
     55 O         2.170863   -0.45266   -1.81765 O.2        1 UNL1     -0.2512
     56 C         4.251539   -1.402149   -1.242626 C.3        1 UNL1     0.0332
     57 C         3.089083   3.366063   -3.59212 C.3        1 UNL1     -0.0567
     58 C         0.955585   6.755125   2.776855 C.3        1 UNL1     0.0210
     59 C         1.818688   4.372767   -2.489565 C.3        1 UNL1     0.0372
     60 C         1.642981   5.430145   0.268046 C.2        1 UNL1     -0.0208
     61 C         0.74121   6.263434   -0.252705 C.2        1 UNL1     0.0882
     62 H         -2.743178   3.639658   -0.007442 H        1 UNL1     0.0365
     63 H         -4.138875   4.343304   1.306765 H        1 UNL1     0.0576
     64 H         -6.372924   2.272264   1.772163 H        1 UNL1     0.0615
     65 H         -5.769745   5.0683   3.027637 H        1 UNL1     0.0622
     66 H         3.705804   5.253944   0.084043 H        1 UNL1     0.0645
     67 H         3.948472   3.19585   0.537441 H        1 UNL1     0.0362
     68 H         4.271894   2.711155   -1.57832 H        1 UNL1     0.0741
     69 H         2.521876   1.473385   -3.137727 H        1 UNL1     0.0359
     70 H         0.424527   2.188913   -3.435487 H        1 UNL1     0.0600
     71 H         -0.4934   0.660347   -2.200332 H        1 UNL1     0.0348
     72 H         -1.709873   2.573335   -1.309987 H        1 UNL1     0.0602
     73 H         1.653157   5.245187   1.313481 H        1 UNL1     0.0628
     74 H         0.627277   6.460619   -1.319183 H        1 UNL1     0.1022
     75 H         -8.129112   3.348918   6.046321 H        1 UNL1     0.0279
     76 H         -9.345573   3.93665   4.984202 H        1 UNL1     0.0279
     77 H         -8.452396   2.397024   4.656962 H        1 UNL1     0.0279
     78 H         -6.190802   4.028126   6.530993 H        1 UNL1     0.1553
     79 H         -5.212748   2.644425   5.503857 H        1 UNL1     0.1484
     80 H         -1.61969   1.576491   4.880201 H        1 UNL1     0.0317
     81 H         -2.044352   2.903894   5.951456 H        1 UNL1     0.0317
     82 H         -4.021195   1.636122   6.833811 H        1 UNL1     0.0428
     83 H         -2.515266   0.769005   7.038728 H        1 UNL1     0.0428
     84 H         -4.955622   -0.402797   3.756248 H        1 UNL1     0.0428
     85 H         -5.576369   0.857767   4.763609 H        1 UNL1     0.0428
     86 H         -4.486712   1.549729   2.6285 H        1 UNL1     0.0317
     87 H         -2.985612   0.868173   3.058071 H        1 UNL1     0.0317
     88 H         -4.504642   -1.89745   5.610637 H        1 UNL1     0.0429
     89 H         -3.429406   -1.465652   6.942422 H        1 UNL1     0.0429
     90 H         -5.315261   -0.956832   8.146996 H        1 UNL1     0.0308
     91 H         -6.75303   1.09623   7.129956 H        1 UNL1     0.0233
     92 H         -5.136013   1.358704   7.831281 H        1 UNL1     0.0233
     93 H         -5.343582   1.289085   6.094424 H        1 UNL1     0.0233
     94 H         -6.372871   -2.400399   6.195669 H        1 UNL1     0.0233
     95 H         -7.34819   -1.63713   7.460779 H        1 UNL1     0.0233
     96 H         -7.226449   -0.881051   5.855315 H        1 UNL1     0.0233
     97 H         -2.262945   11.150845   4.341653 H        1 UNL1     0.0280
     98 H         -0.735397   10.45456   4.809597 H        1 UNL1     0.0280
     99 H         -1.148783   10.602694   3.075556 H        1 UNL1     0.0280
     100 H         -3.06738   10.041528   6.277176 H        1 UNL1     0.2922
     101 H         -3.485747   2.23694   -2.312765 H        1 UNL1     0.0236
     102 H         -3.895803   3.966895   -1.988466 H        1 UNL1     0.0236
     103 H         -5.030679   2.692866   -1.665352 H        1 UNL1     0.0236
     104 H         -3.198058   0.851305   -1.672407 H        1 UNL1     0.2098
     105 H         1.417406   0.072806   -0.998222 H        1 UNL1     0.0234
     106 H         1.086509   1.260622   0.294332 H        1 UNL1     0.0234
     107 H         0.0   0.0   0.0 H        1 UNL1     0.0234
     108 H         0.691258   4.310559   -2.991894 H        1 UNL1     0.2098
     109 H         1.423587   3.627436   1.519308 H        1 UNL1     0.0234
     110 H         1.401367   1.952624   0.881099 H        1 UNL1     0.0234
     111 H         2.608741   2.438851   2.018937 H        1 UNL1     0.0234
     112 H         5.277416   -1.022146   -1.21987 H        1 UNL1     0.0342
     113 H         4.05217   -2.040444   -0.383163 H        1 UNL1     0.0342
     114 H         4.139981   -2.016608   -2.146595 H        1 UNL1     0.0342
     115 H         2.806572   3.140948   -4.629761 H        1 UNL1     0.0234
     116 H         2.873071   4.421464   -3.414588 H        1 UNL1     0.0234
     117 H         4.185135   3.245944   -3.638837 H        1 UNL1     0.0234
     118 H         0.749671   7.047063   3.821545 H        1 UNL1     0.0309
     119 H         1.262719   5.704757   2.752406 H        1 UNL1     0.0309
     120 H         1.84776   7.33792   2.522926 H        1 UNL1     0.0309
     121 H         0.918008   4.289808   -1.881906 H        1 UNL1     0.0524
     122 H         1.543992   4.89603   -3.420573 H        1 UNL1     0.0524
     123 H         2.195287   3.384667   -2.738415 H        1 UNL1     0.0524
@<TRIPOS>BOND
     1     1     2    1
     2     1    42    1
     3     2     3    2
     4     3     4    1
     5     4     5    2
     6     5     7    1
     7     6    75    1
     8     6    76    1
     9     6    77    1
    10     7     9   am
    11     9    10    1
    12    10    11    2
    13    10    43    1
    14    11    14    1
    15    11    15    1
    16    12    13   ar
    17    12    27   ar
    18    12    43    1
    19    13    14    1
    20    13    30   ar
    21    14    17    2
    22    15    16    1
    23    16    17    1
    24    16    18    1
    25    16    22    1
    26    18    19    1
    27    19    20    1
    28    20    21    1
    29    21    22    1
    30    23    24    1
    31    23    88    1
    32    23    89    1
    33    24    25    1
    34    24    26    1
    35    24    90    1
    36    25    91    1
    37    25    92    1
    38    25    93    1
    39    26    94    1
    40    26    95    1
    41    26    96    1
    42    27    28   ar
    43    28    29   ar
    44    29    30   ar
    45    29    31    1
    46    30    33    1
    47    31    32    1
    48    32    33    1
    49    32    35    1
    50    34    97    1
    51    34    98    1
    52    34    99    1
    53    35    61    1
    54    36    37    1
    55    36    60    1
    56    37    38    1
    57    38    39    1
    58    39    40    1
    59    40    41    1
    60    41    42    1
    61    45   100    1
    62    47   101    1
    63    47   102    1
    64    47   103    1
    65    48   104    1
    66    49   105    1
    67    49   106    1
    68    49   107    1
    69    50   108    1
    70    51    59    1
    71    52   109    1
    72    52   110    1
    73    52   111    1
    74    53    54    1
    75    54    55    2
    76    54    56    1
    77    56   112    1
    78    56   113    1
    79    56   114    1
    80    57   115    1
    81    57   116    1
    82    57   117    1
    83    58   118    1
    84    58   119    1
    85    58   120    1
    86    59   121    1
    87    59   122    1
    88    59   123    1
    89    60    61    2
    90     1    47    1
    91     1    62    1
    92     2    63    1
    93     3    64    1
    94     4    65    1
    95     5     6    1
    96     7     8    2
    97     9    78    1
    98    15    79    1
    99    18    80    1
   100    18    81    1
   101    19    82    1
   102    19    83    1
   103    20    23    1
   104    21    84    1
   105    21    85    1
   106    22    86    1
   107    22    87    1
   108    27    45    1
   109    28    34    1
   110    32    58    1
   111    33    46    2
   112    36    51    1
   113    36    66    1
   114    37    52    1
   115    37    67    1
   116    38    53    1
   117    38    68    1
   118    42    48    1
   119    42    72    1
   120    43    44    2
   121    60    73    1
   122    61    74    1
   123    39    69    1
   124    39    57    1
   125    40    70    1
   126    40    50    1
   127    41    71    1
   128    41    49    1
