@<TRIPOS>MOLECULE
*****
 123 128 0 0 0
SMALL
GASTEIGER

@<TRIPOS>ATOM
     1 C         0.246391   2.210789   -3.550996 C.3        1 UNL1     0.0009
     2 C         -0.470423   3.887745   -3.884209 C.2        1 UNL1     -0.0787
     3 C         -1.489759   4.720963   -4.486496 C.2        1 UNL1     -0.0649
     4 C         -1.696583   6.393444   -4.32405 C.2        1 UNL1     -0.0542
     5 C         -2.611304   7.467889   -4.450264 C.2        1 UNL1     0.0115
     6 C         -4.015441   7.866948   -4.981747 C.3        1 UNL1     -0.0348
     7 C         -2.286066   8.855819   -3.712119 C.2        1 UNL1     0.2441
     8 O         -1.848386   9.835424   -4.299771 O.2        1 UNL1     -0.2702
     9 N         -2.781102   8.955306   -2.400176 N.am        1 UNL1     -0.2772
     10 C         -1.867535   8.451969   -1.502752 C.2        1 UNL1     0.1049
     11 C         -1.875912   7.141793   -1.33665 C.2        1 UNL1     0.0801
     12 C         0.548226   8.556463   -0.862038 C.ar        1 UNL1     0.0753
     13 C         0.539347   7.1257   -0.900071 C.ar        1 UNL1     0.0305
     14 C         -0.706952   6.37092   -1.010056 C.2        1 UNL1     0.0924
     15 N         -2.771222   6.22528   -1.742792 N.pl3        1 UNL1     -0.3170
     16 C         -2.404404   4.963141   -1.157382 C.3        1 UNL1     0.1275
     17 N         -0.911027   5.057582   -0.96084 N.2        1 UNL1     -0.2557
     18 C         -3.013589   4.919094   0.240708 C.3        1 UNL1     0.0016
     19 C         -4.512579   5.145641   0.125408 C.3        1 UNL1     0.0026
     20 N         -5.078387   4.108007   -0.725596 N.3        1 UNL1     -0.3018
     21 C         -4.510839   4.031234   -2.073321 C.3        1 UNL1     0.0026
     22 C         -3.005394   3.798789   -1.933683 C.3        1 UNL1     0.0016
     23 C         -6.525206   4.052081   -0.660555 C.3        1 UNL1     0.0012
     24 C         -7.147865   5.040307   -1.659284 C.3        1 UNL1     -0.0339
     25 C         -8.378094   4.43578   -2.355804 C.3        1 UNL1     -0.0615
     26 C         -7.486764   6.344608   -0.958765 C.3        1 UNL1     -0.0615
     27 C         1.725825   9.26516   -0.635926 C.ar        1 UNL1     0.1347
     28 C         2.943867   8.654653   -0.395706 C.ar        1 UNL1     0.0342
     29 C         2.920301   7.246687   -0.486472 C.ar        1 UNL1     0.1435
     30 C         1.75517   6.52471   -0.748081 C.ar        1 UNL1     0.0774
     31 O         4.00208   6.501884   -0.170198 O.3        1 UNL1     -0.4436
     32 C         3.478333   5.188287   0.076836 C.3        1 UNL1     0.3143
     33 C         2.16443   5.13758   -0.676357 C.2        1 UNL1     0.2504
     34 C         4.188923   9.335803   0.100247 C.3        1 UNL1     -0.0327
     35 O         4.358988   4.252418   -0.557079 O.2        1 UNL1     -0.4528
     36 C         4.172522   1.078792   1.516906 C.3        1 UNL1     0.0854
     37 C         2.914482   0.201725   1.885161 C.3        1 UNL1     0.0236
     38 C         3.031068   -1.347607   1.488018 C.3        1 UNL1     0.1131
     39 C         3.455075   -1.751714   0.018602 C.3        1 UNL1     0.0200
     40 C         2.804056   -0.959012   -1.296783 C.3        1 UNL1     0.0661
     41 C         1.154103   -0.673139   -1.567969 C.3        1 UNL1     0.0091
     42 C         0.310531   0.722561   -2.408095 C.3        1 UNL1     0.0661
     43 C         -0.753619   9.258603   -0.982285 C.2        1 UNL1     0.2131
     44 O         -0.944979   10.394124   -0.586417 O.2        1 UNL1     -0.2851
     45 O         1.656071   10.656563   -0.659815 O.3        1 UNL1     -0.5056
     46 O         1.59486   4.172067   -1.133771 O.2        1 UNL1     -0.2836
     47 C         0.948493   1.662138   -4.822222 C.3        1 UNL1     -0.0566
     48 O         -0.566837   -0.150305   -3.225069 O.3        1 UNL1     -0.3909
     49 C         0.395523   -0.940601   -0.287144 C.3        1 UNL1     -0.0577
     50 O         3.552147   0.200171   -1.603994 O.3        1 UNL1     -0.3910
     51 O         5.159946   0.44287   0.737144 O.3        1 UNL1     -0.3753
     52 C         1.580659   1.002261   1.727022 C.3        1 UNL1     -0.0564
     53 O         2.000807   -2.216124   2.14875 O.3        1 UNL1     -0.4608
     54 C         1.372466   -3.286547   1.567965 C.2        1 UNL1     0.3042
     55 O         1.007884   -3.393755   0.397741 O.2        1 UNL1     -0.2512
     56 C         1.183898   -4.450677   2.498534 C.3        1 UNL1     0.0332
     57 C         5.033282   -2.011289   0.026199 C.3        1 UNL1     -0.0567
     58 C         3.187109   5.111632   1.593689 C.3        1 UNL1     0.0210
     59 C         6.362514   0.124499   1.435954 C.3        1 UNL1     0.0372
     60 C         3.863577   2.371631   0.847369 C.2        1 UNL1     -0.0208
     61 C         4.426321   2.951887   -0.213464 C.2        1 UNL1     0.0882
     62 H         1.025963   2.685878   -2.94332 H        1 UNL1     0.0365
     63 H         0.285051   4.527367   -3.42311 H        1 UNL1     0.0576
     64 H         -2.353829   4.289614   -4.996819 H        1 UNL1     0.0615
     65 H         -0.755536   6.730596   -3.881057 H        1 UNL1     0.0622
     66 H         4.619674   1.34073   2.486179 H        1 UNL1     0.0645
     67 H         2.938417   0.148137   2.987484 H        1 UNL1     0.0362
     68 H         3.87922   -1.63789   2.126686 H        1 UNL1     0.0741
     69 H         3.165928   -2.779335   -0.156887 H        1 UNL1     0.0359
     70 H         3.063223   -1.676147   -2.099035 H        1 UNL1     0.0600
     71 H         0.897695   -1.571139   -2.163628 H        1 UNL1     0.0348
     72 H         1.35454   0.74756   -2.752674 H        1 UNL1     0.0602
     73 H         3.149542   2.902887   1.426306 H        1 UNL1     0.0628
     74 H         5.121655   2.45563   -0.891312 H        1 UNL1     0.1022
     75 H         -3.963274   8.13419   -6.064749 H        1 UNL1     0.0279
     76 H         -4.777724   7.091181   -4.968345 H        1 UNL1     0.0279
     77 H         -4.384633   8.806091   -4.544244 H        1 UNL1     0.0279
     78 H         -3.632091   8.403685   -2.31295 H        1 UNL1     0.1553
     79 H         -3.712238   6.446889   -2.011698 H        1 UNL1     0.1484
     80 H         -2.789313   3.947824   0.697983 H        1 UNL1     0.0317
     81 H         -2.56497   5.680971   0.887188 H        1 UNL1     0.0317
     82 H         -4.744066   6.147599   -0.264985 H        1 UNL1     0.0428
     83 H         -4.926605   5.112096   1.133628 H        1 UNL1     0.0428
     84 H         -4.89564   3.194274   -2.664284 H        1 UNL1     0.0428
     85 H         -4.759718   4.91781   -2.672788 H        1 UNL1     0.0428
     86 H         -2.647077   3.61566   -2.929706 H        1 UNL1     0.0317
     87 H         -2.819165   2.848649   -1.418272 H        1 UNL1     0.0317
     88 H         -6.840253   3.035973   -0.931781 H        1 UNL1     0.0429
     89 H         -6.886069   4.239307   0.359003 H        1 UNL1     0.0429
     90 H         -6.404059   5.295225   -2.423472 H        1 UNL1     0.0308
     91 H         -9.205024   4.297161   -1.652901 H        1 UNL1     0.0233
     92 H         -8.709402   5.074622   -3.177829 H        1 UNL1     0.0233
     93 H         -8.167752   3.454038   -2.797137 H        1 UNL1     0.0233
     94 H         -8.267063   6.178546   -0.20817 H        1 UNL1     0.0233
     95 H         -6.602863   6.73382   -0.445739 H        1 UNL1     0.0233
     96 H         -7.843555   7.097209   -1.667469 H        1 UNL1     0.0233
     97 H         4.627807   9.982072   -0.654039 H        1 UNL1     0.0280
     98 H         3.991383   9.978172   0.968347 H        1 UNL1     0.0280
     99 H         4.936972   8.577129   0.382967 H        1 UNL1     0.0280
     100 H         1.443902   11.052198   0.167276 H        1 UNL1     0.2922
     101 H         1.648176   0.874069   -4.54465 H        1 UNL1     0.0236
     102 H         1.424153   2.439944   -5.418669 H        1 UNL1     0.0236
     103 H         0.237514   1.175454   -5.510583 H        1 UNL1     0.0236
     104 H         -0.949727   0.39938   -3.936554 H        1 UNL1     0.2098
     105 H         -0.436038   -1.632652   -0.393835 H        1 UNL1     0.0234
     106 H         1.018798   -1.226697   0.559971 H        1 UNL1     0.0234
     107 H         0.0   0.0   0.0 H        1 UNL1     0.0234
     108 H         3.98077   0.496207   -0.777911 H        1 UNL1     0.2098
     109 H         1.543297   1.882317   2.38415 H        1 UNL1     0.0234
     110 H         1.381812   1.307561   0.694067 H        1 UNL1     0.0234
     111 H         0.708199   0.392454   1.997013 H        1 UNL1     0.0234
     112 H         0.84554   -4.094523   3.476294 H        1 UNL1     0.0342
     113 H         0.496501   -5.191719   2.093337 H        1 UNL1     0.0342
     114 H         2.157605   -4.940458   2.637001 H        1 UNL1     0.0342
     115 H         5.372254   -2.493943   -0.900802 H        1 UNL1     0.0234
     116 H         5.631085   -1.10809   0.163718 H        1 UNL1     0.0234
     117 H         5.353964   -2.750097   0.780698 H        1 UNL1     0.0234
     118 H         3.946139   5.648479   2.189236 H        1 UNL1     0.0309
     119 H         2.193189   5.485174   1.859754 H        1 UNL1     0.0309
     120 H         3.239998   4.088133   1.980676 H        1 UNL1     0.0309
     121 H         7.187293   0.601233   0.906972 H        1 UNL1     0.0524
     122 H         6.361761   0.512419   2.468211 H        1 UNL1     0.0524
     123 H         6.507303   -0.951769   1.463864 H        1 UNL1     0.0524
@<TRIPOS>BOND
     1     1     2    1
     2     1    42    1
     3     2     3    2
     4     3     4    1
     5     4     5    2
     6     5     7    1
     7     6    75    1
     8     6    76    1
     9     6    77    1
    10     7     9   am
    11     9    10    1
    12    10    11    2
    13    10    43    1
    14    11    14    1
    15    11    15    1
    16    12    13   ar
    17    12    27   ar
    18    12    43    1
    19    13    14    1
    20    13    30   ar
    21    14    17    2
    22    15    16    1
    23    16    17    1
    24    16    18    1
    25    16    22    1
    26    18    19    1
    27    19    20    1
    28    20    21    1
    29    21    22    1
    30    23    24    1
    31    23    88    1
    32    23    89    1
    33    24    25    1
    34    24    26    1
    35    24    90    1
    36    25    91    1
    37    25    92    1
    38    25    93    1
    39    26    94    1
    40    26    95    1
    41    26    96    1
    42    27    28   ar
    43    28    29   ar
    44    29    30   ar
    45    29    31    1
    46    30    33    1
    47    31    32    1
    48    32    33    1
    49    32    35    1
    50    34    97    1
    51    34    98    1
    52    34    99    1
    53    35    61    1
    54    36    37    1
    55    36    60    1
    56    37    38    1
    57    38    39    1
    58    39    40    1
    59    40    41    1
    60    41    42    1
    61    45   100    1
    62    47   101    1
    63    47   102    1
    64    47   103    1
    65    48   104    1
    66    49   105    1
    67    49   106    1
    68    49   107    1
    69    50   108    1
    70    51    59    1
    71    52   109    1
    72    52   110    1
    73    52   111    1
    74    53    54    1
    75    54    55    2
    76    54    56    1
    77    56   112    1
    78    56   113    1
    79    56   114    1
    80    57   115    1
    81    57   116    1
    82    57   117    1
    83    58   118    1
    84    58   119    1
    85    58   120    1
    86    59   121    1
    87    59   122    1
    88    59   123    1
    89    60    61    2
    90     1    47    1
    91     1    62    1
    92     2    63    1
    93     3    64    1
    94     4    65    1
    95     5     6    1
    96     7     8    2
    97     9    78    1
    98    15    79    1
    99    18    80    1
   100    18    81    1
   101    19    82    1
   102    19    83    1
   103    20    23    1
   104    21    84    1
   105    21    85    1
   106    22    86    1
   107    22    87    1
   108    27    45    1
   109    28    34    1
   110    32    58    1
   111    33    46    2
   112    36    51    1
   113    36    66    1
   114    37    52    1
   115    37    67    1
   116    38    53    1
   117    38    68    1
   118    42    48    1
   119    42    72    1
   120    43    44    2
   121    60    73    1
   122    61    74    1
   123    39    69    1
   124    39    57    1
   125    40    70    1
   126    40    50    1
   127    41    71    1
   128    41    49    1
