@<TRIPOS>MOLECULE
*****
 123 128 0 0 0
SMALL
GASTEIGER

@<TRIPOS>ATOM
     1 C         -0.150917   -0.115985   -4.234947 C.3        1 UNL1     0.0009
     2 C         -1.050469   1.0442   -5.36712 C.2        1 UNL1     -0.0787
     3 C         -2.161033   1.326844   -6.251884 C.2        1 UNL1     -0.0649
     4 C         -2.548138   2.795722   -6.999482 C.2        1 UNL1     -0.0542
     5 C         -3.576286   3.546854   -7.620603 C.2        1 UNL1     0.0115
     6 C         -5.021037   3.471356   -8.18657 C.3        1 UNL1     -0.0348
     7 C         -3.397515   5.1354   -7.767409 C.2        1 UNL1     0.2441
     8 O         -3.075791   5.674607   -8.817302 O.2        1 UNL1     -0.2702
     9 N         -3.887052   5.885787   -6.684162 N.am        1 UNL1     -0.2772
     10 C         -2.914737   6.02963   -5.721232 C.2        1 UNL1     0.1049
     11 C         -2.777856   5.022963   -4.877367 C.2        1 UNL1     0.0801
     12 C         -0.518544   6.673045   -5.402466 C.ar        1 UNL1     0.0753
     13 C         -0.371037   5.454993   -4.665446 C.ar        1 UNL1     0.0305
     14 C         -1.52822   4.656213   -4.268041 C.2        1 UNL1     0.0924
     15 N         -3.571487   3.959024   -4.66592 N.pl3        1 UNL1     -0.3170
     16 C         -3.062671   3.251974   -3.520739 C.3        1 UNL1     0.1275
     17 N         -1.586697   3.56669   -3.507485 N.2        1 UNL1     -0.2557
     18 C         -3.649063   3.919045   -2.28023 C.3        1 UNL1     0.0016
     19 C         -5.164947   3.916288   -2.397182 C.3        1 UNL1     0.0026
     20 N         -5.622349   2.538814   -2.517081 N.3        1 UNL1     -0.3018
     21 C         -5.063594   1.79434   -3.647532 C.3        1 UNL1     0.0026
     22 C         -3.5404   1.805894   -3.507386 C.3        1 UNL1     0.0016
     23 C         -7.053597   2.401919   -2.334234 C.3        1 UNL1     0.0012
     24 C         -7.435619   2.65317   -0.86703 C.3        1 UNL1     -0.0339
     25 C         -8.622392   1.775427   -0.436688 C.3        1 UNL1     -0.0615
     26 C         -6.228322   2.439516   0.029389 C.3        1 UNL1     -0.0615
     27 C         0.576589   7.490181   -5.672822 C.ar        1 UNL1     0.1347
     28 C         1.856562   7.215066   -5.225574 C.ar        1 UNL1     0.0342
     29 C         1.986435   5.986268   -4.544139 C.ar        1 UNL1     0.1435
     30 C         0.904787   5.139893   -4.297343 C.ar        1 UNL1     0.0774
     31 O         3.146459   5.628186   -3.951578 O.3        1 UNL1     -0.4436
     32 C         2.772297   4.617821   -3.002874 C.3        1 UNL1     0.3143
     33 C         1.464235   4.053957   -3.51983 C.2        1 UNL1     0.2504
     34 C         3.024513   8.161048   -5.258823 C.3        1 UNL1     -0.0327
     35 O         3.743647   3.568245   -3.092995 O.2        1 UNL1     -0.4528
     36 C         3.927108   2.020143   0.367902 C.3        1 UNL1     0.0854
     37 C         2.776532   1.376899   1.23389 C.3        1 UNL1     0.0236
     38 C         3.058063   -0.123816   1.724134 C.3        1 UNL1     0.1131
     39 C         3.508762   -1.220369   0.676894 C.3        1 UNL1     0.0200
     40 C         2.761439   -1.325655   -0.810674 C.3        1 UNL1     0.0661
     41 C         1.087419   -1.376236   -1.080321 C.3        1 UNL1     0.0091
     42 C         0.087513   -0.736628   -2.479067 C.3        1 UNL1     0.0661
     43 C         -1.890624   7.082477   -5.792367 C.2        1 UNL1     0.2131
     44 O         -2.201162   8.229911   -6.056373 O.2        1 UNL1     -0.2851
     45 O         0.354606   8.634988   -6.435436 O.3        1 UNL1     -0.5056
     46 O         0.99921   2.949498   -3.34727 O.2        1 UNL1     -0.2836
     47 C         0.594043   -1.202083   -5.056778 C.3        1 UNL1     -0.0566
     48 O         -0.69726   -1.984858   -2.637713 O.3        1 UNL1     -0.3909
     49 C         0.375813   -0.972436   0.191708 C.3        1 UNL1     -0.0577
     50 O         3.374881   -0.457579   -1.742262 O.3        1 UNL1     -0.3910
     51 O         4.970235   1.151757   -0.013179 O.3        1 UNL1     -0.3753
     52 C         1.361503   1.845351   0.761454 C.3        1 UNL1     -0.0564
     53 O         2.135933   -0.581884   2.816002 O.3        1 UNL1     -0.4608
     54 C         1.858379   -1.887371   3.1268 C.2        1 UNL1     0.3042
     55 O         0.845606   -2.524365   2.839802 O.2        1 UNL1     -0.2512
     56 C         2.975182   -2.583655   3.85113 C.3        1 UNL1     0.0332
     57 C         5.105901   -1.296668   0.715654 C.3        1 UNL1     -0.0567
     58 C         2.50672   5.349437   -1.666559 C.3        1 UNL1     0.0210
     59 C         6.20751   1.367845   0.663816 C.3        1 UNL1     0.0372
     60 C         3.471591   2.712352   -0.868428 C.2        1 UNL1     -0.0208
     61 C         3.956533   2.672277   -2.110189 C.2        1 UNL1     0.0882
     62 H         0.578087   0.677795   -4.032023 H        1 UNL1     0.0365
     63 H         -0.364934   1.894178   -5.374168 H        1 UNL1     0.0576
     64 H         -2.977819   0.61502   -6.390712 H        1 UNL1     0.0615
     65 H         -1.645212   3.398988   -6.871897 H        1 UNL1     0.0622
     66 H         4.352748   2.802554   1.011882 H        1 UNL1     0.0645
     67 H         2.817444   1.930754   2.187898 H        1 UNL1     0.0362
     68 H         3.939383   0.052516   2.359512 H        1 UNL1     0.0741
     69 H         3.332139   -2.199901   1.100839 H        1 UNL1     0.0359
     70 H         3.089396   -2.33722   -1.117658 H        1 UNL1     0.0600
     71 H         0.92485   -2.471922   -1.081497 H        1 UNL1     0.0348
     72 H         1.11893   -0.811783   -2.853027 H        1 UNL1     0.0602
     73 H         2.709608   3.408184   -0.618534 H        1 UNL1     0.0628
     74 H         4.695086   1.950567   -2.460776 H        1 UNL1     0.1022
     75 H         -5.106331   2.64686   -8.934877 H        1 UNL1     0.0279
     76 H         -5.807882   3.225903   -7.476853 H        1 UNL1     0.0279
     77 H         -5.284643   4.346957   -8.797746 H        1 UNL1     0.0279
     78 H         -4.671563   5.397906   -6.256856 H        1 UNL1     0.1553
     79 H         -4.533811   3.917332   -4.947217 H        1 UNL1     0.1484
     80 H         -3.315092   3.373583   -1.389331 H        1 UNL1     0.0317
     81 H         -3.28002   4.945031   -2.176253 H        1 UNL1     0.0317
     82 H         -5.508764   4.522992   -3.247836 H        1 UNL1     0.0428
     83 H         -5.562494   4.398042   -1.503358 H        1 UNL1     0.0428
     84 H         -5.360415   0.741128   -3.668834 H        1 UNL1     0.0428
     85 H         -5.414192   2.189874   -4.610833 H        1 UNL1     0.0428
     86 H         -3.174365   1.14469   -4.27081 H        1 UNL1     0.0317
     87 H         -3.245966   1.306274   -2.576374 H        1 UNL1     0.0317
     88 H         -7.5513   3.155179   -2.958883 H        1 UNL1     0.0429
     89 H         -7.40665   1.419269   -2.672651 H        1 UNL1     0.0429
     90 H         -7.717226   3.705723   -0.744374 H        1 UNL1     0.0308
     91 H         -8.488796   0.739066   -0.761047 H        1 UNL1     0.0233
     92 H         -8.746349   1.798421   0.648538 H        1 UNL1     0.0233
     93 H         -9.57297   2.121365   -0.860438 H        1 UNL1     0.0233
     94 H         -6.551556   2.232065   1.055215 H        1 UNL1     0.0233
     95 H         -5.649461   1.580732   -0.321853 H        1 UNL1     0.0233
     96 H         -5.580322   3.32036   0.042709 H        1 UNL1     0.0233
     97 H         3.381881   8.331816   -6.26994 H        1 UNL1     0.0280
     98 H         2.766828   9.15088   -4.859964 H        1 UNL1     0.0280
     99 H         3.85422   7.744021   -4.664878 H        1 UNL1     0.0280
     100 H         -0.134343   8.48986   -7.226315 H        1 UNL1     0.2922
     101 H         0.812015   -2.059566   -4.420486 H        1 UNL1     0.0236
     102 H         1.486524   -0.825369   -5.555324 H        1 UNL1     0.0236
     103 H         -0.031389   -1.608254   -5.869214 H        1 UNL1     0.0236
     104 H         -1.494915   -1.904808   -2.078867 H        1 UNL1     0.2098
     105 H         -0.465404   -1.607945   0.456838 H        1 UNL1     0.0234
     106 H         1.028312   -0.830545   1.053125 H        1 UNL1     0.0234
     107 H         0.0   0.0   0.0 H        1 UNL1     0.0234
     108 H         2.914916   -0.575966   -2.595599 H        1 UNL1     0.2098
     109 H         1.234679   2.933852   0.843875 H        1 UNL1     0.0234
     110 H         1.119879   1.524423   -0.257548 H        1 UNL1     0.0234
     111 H         0.56389   1.405861   1.375137 H        1 UNL1     0.0234
     112 H         2.571528   -3.168222   4.68341 H        1 UNL1     0.0342
     113 H         3.567757   -3.209342   3.185386 H        1 UNL1     0.0342
     114 H         3.642535   -1.817859   4.269891 H        1 UNL1     0.0342
     115 H         5.50696   -1.88699   -0.119726 H        1 UNL1     0.0234
     116 H         5.597544   -0.322039   0.694834 H        1 UNL1     0.0234
     117 H         5.498639   -1.857803   1.581001 H        1 UNL1     0.0234
     118 H         3.277758   5.122858   -0.90948 H        1 UNL1     0.0309
     119 H         2.424366   6.435039   -1.780091 H        1 UNL1     0.0309
     120 H         1.577665   5.023437   -1.186262 H        1 UNL1     0.0309
     121 H         7.005626   1.008705   0.014673 H        1 UNL1     0.0524
     122 H         6.395474   2.436412   0.860974 H        1 UNL1     0.0524
     123 H         6.219475   0.827968   1.60641 H        1 UNL1     0.0524
@<TRIPOS>BOND
     1     1     2    1
     2     1    42    1
     3     2     3    2
     4     3     4    1
     5     4     5    2
     6     5     7    1
     7     6    75    1
     8     6    76    1
     9     6    77    1
    10     7     9   am
    11     9    10    1
    12    10    11    2
    13    10    43    1
    14    11    14    1
    15    11    15    1
    16    12    13   ar
    17    12    27   ar
    18    12    43    1
    19    13    14    1
    20    13    30   ar
    21    14    17    2
    22    15    16    1
    23    16    17    1
    24    16    18    1
    25    16    22    1
    26    18    19    1
    27    19    20    1
    28    20    21    1
    29    21    22    1
    30    23    24    1
    31    23    88    1
    32    23    89    1
    33    24    25    1
    34    24    26    1
    35    24    90    1
    36    25    91    1
    37    25    92    1
    38    25    93    1
    39    26    94    1
    40    26    95    1
    41    26    96    1
    42    27    28   ar
    43    28    29   ar
    44    29    30   ar
    45    29    31    1
    46    30    33    1
    47    31    32    1
    48    32    33    1
    49    32    35    1
    50    34    97    1
    51    34    98    1
    52    34    99    1
    53    35    61    1
    54    36    37    1
    55    36    60    1
    56    37    38    1
    57    38    39    1
    58    39    40    1
    59    40    41    1
    60    41    42    1
    61    45   100    1
    62    47   101    1
    63    47   102    1
    64    47   103    1
    65    48   104    1
    66    49   105    1
    67    49   106    1
    68    49   107    1
    69    50   108    1
    70    51    59    1
    71    52   109    1
    72    52   110    1
    73    52   111    1
    74    53    54    1
    75    54    55    2
    76    54    56    1
    77    56   112    1
    78    56   113    1
    79    56   114    1
    80    57   115    1
    81    57   116    1
    82    57   117    1
    83    58   118    1
    84    58   119    1
    85    58   120    1
    86    59   121    1
    87    59   122    1
    88    59   123    1
    89    60    61    2
    90     1    47    1
    91     1    62    1
    92     2    63    1
    93     3    64    1
    94     4    65    1
    95     5     6    1
    96     7     8    2
    97     9    78    1
    98    15    79    1
    99    18    80    1
   100    18    81    1
   101    19    82    1
   102    19    83    1
   103    20    23    1
   104    21    84    1
   105    21    85    1
   106    22    86    1
   107    22    87    1
   108    27    45    1
   109    28    34    1
   110    32    58    1
   111    33    46    2
   112    36    51    1
   113    36    66    1
   114    37    52    1
   115    37    67    1
   116    38    53    1
   117    38    68    1
   118    42    48    1
   119    42    72    1
   120    43    44    2
   121    60    73    1
   122    61    74    1
   123    39    69    1
   124    39    57    1
   125    40    70    1
   126    40    50    1
   127    41    71    1
   128    41    49    1
