@<TRIPOS>MOLECULE
*****
 123 128 0 0 0
SMALL
GASTEIGER

@<TRIPOS>ATOM
     1 C         3.049289   4.148047   1.062896 C.3        1 UNL1     0.0009
     2 C         3.203502   5.947431   0.644001 C.2        1 UNL1     -0.0787
     3 C         3.929918   7.034578   0.022328 C.2        1 UNL1     -0.0649
     4 C         3.444821   8.647791   -0.146739 C.2        1 UNL1     -0.0542
     5 C         3.648871   9.852484   -0.863786 C.2        1 UNL1     0.0115
     6 C         4.577045   10.564696   -1.885828 C.3        1 UNL1     -0.0348
     7 C         2.516275   10.988925   -0.811669 C.2        1 UNL1     0.2441
     8 O         2.610044   11.990399   -0.115404 O.2        1 UNL1     -0.2702
     9 N         1.533521   10.887325   -1.811681 N.am        1 UNL1     -0.2772
     10 C         0.505696   10.07345   -1.393942 C.2        1 UNL1     0.1049
     11 C         0.69548   8.774678   -1.540211 C.2        1 UNL1     0.0801
     12 C         -1.05105   9.669254   0.521914 C.ar        1 UNL1     0.0753
     13 C         -0.650662   8.296696   0.455729 C.ar        1 UNL1     0.0305
     14 C         0.136207   7.782276   -0.662868 C.2        1 UNL1     0.0924
     15 N         1.643904   8.111897   -2.224126 N.pl3        1 UNL1     -0.3170
     16 C         1.302184   6.71433   -2.207174 C.3        1 UNL1     0.1275
     17 N         0.507984   6.53493   -0.936432 N.2        1 UNL1     -0.2557
     18 C         0.325653   6.473671   -3.35442 C.3        1 UNL1     0.0016
     19 C         0.969032   6.946995   -4.648103 C.3        1 UNL1     0.0026
     20 N         2.208254   6.209416   -4.851409 N.3        1 UNL1     -0.3018
     21 C         3.18776   6.329274   -3.76948 C.3        1 UNL1     0.0026
     22 C         2.521863   5.844181   -2.480619 C.3        1 UNL1     0.0016
     23 C         2.74368   6.364264   -6.189312 C.3        1 UNL1     0.0012
     24 C         1.89973   5.574315   -7.201974 C.3        1 UNL1     -0.0339
     25 C         2.767918   5.009383   -8.338265 C.3        1 UNL1     -0.0615
     26 C         1.125734   4.477451   -6.491622 C.3        1 UNL1     -0.0615
     27 C         -1.901019   10.125494   1.526661 C.ar        1 UNL1     0.1347
     28 C         -2.444572   9.298456   2.493413 C.ar        1 UNL1     0.0342
     29 C         -1.997659   7.961178   2.437564 C.ar        1 UNL1     0.1435
     30 C         -1.11804   7.497604   1.458488 C.ar        1 UNL1     0.0774
     31 O         -2.519603   7.009512   3.241873 O.3        1 UNL1     -0.4436
     32 C         -2.194159   5.769781   2.595324 C.3        1 UNL1     0.3143
     33 C         -0.992585   6.079997   1.725727 C.2        1 UNL1     0.2504
     34 C         -3.552168   9.661405   3.442939 C.3        1 UNL1     -0.0327
     35 O         -1.750332   4.8628   3.612013 O.2        1 UNL1     -0.4528
     36 C         -2.696389   1.393483   2.396733 C.3        1 UNL1     0.0854
     37 C         -2.294956   0.662955   1.057815 C.3        1 UNL1     0.0236
     38 C         -1.598355   -0.768464   1.25154 C.3        1 UNL1     0.1131
     39 C         -0.371155   -0.917287   2.238506 C.3        1 UNL1     0.0200
     40 C         0.846304   0.222923   2.250763 C.3        1 UNL1     0.0661
     41 C         1.672269   0.809288   0.890039 C.3        1 UNL1     0.0091
     42 C         2.395027   2.462306   0.557544 C.3        1 UNL1     0.0661
     43 C         -0.60292   10.572639   -0.566817 C.2        1 UNL1     0.2131
     44 O         -1.163412   11.616153   -0.849066 O.2        1 UNL1     -0.2851
     45 O         -2.205437   11.485049   1.546079 O.3        1 UNL1     -0.5056
     46 O         -0.116808   5.330511   1.355406 O.2        1 UNL1     -0.2836
     47 C         4.027455   3.775504   2.209362 C.3        1 UNL1     -0.0566
     48 O         3.687013   1.924661   0.066804 O.3        1 UNL1     -0.3909
     49 C         0.915484   0.400292   -0.353943 C.3        1 UNL1     -0.0577
     50 O         0.523368   1.291587   3.117593 O.3        1 UNL1     -0.3910
     51 O         -2.242977   0.790221   3.587499 O.3        1 UNL1     -0.3753
     52 C         -1.825655   1.674197   -0.038587 C.3        1 UNL1     -0.0564
     53 O         -1.547755   -1.586793   -0.005482 O.3        1 UNL1     -0.4608
     54 C         -0.513183   -2.402821   -0.381899 C.2        1 UNL1     0.3042
     55 O         0.35304   -2.170316   -1.224179 O.2        1 UNL1     -0.2512
     56 C         -0.447934   -3.687755   0.393601 C.3        1 UNL1     0.0332
     57 C         -0.942967   -1.412213   3.647851 C.3        1 UNL1     -0.0567
     58 C         -3.394139   5.42396   1.683193 C.3        1 UNL1     0.0210
     59 C         -3.258411   0.152008   4.360445 C.3        1 UNL1     0.0372
     60 C         -2.311513   2.829361   2.469443 C.2        1 UNL1     -0.0208
     61 C         -1.749606   3.524657   3.459174 C.2        1 UNL1     0.0882
     62 H         2.081751   4.360226   1.5336 H        1 UNL1     0.0365
     63 H         2.332906   6.352813   1.163806 H        1 UNL1     0.0576
     64 H         4.834395   6.857318   -0.563852 H        1 UNL1     0.0615
     65 H         2.592784   8.736291   0.532733 H        1 UNL1     0.0622
     66 H         -3.795338   1.37544   2.402229 H        1 UNL1     0.0645
     67 H         -3.261733   0.37747   0.607925 H        1 UNL1     0.0362
     68 H         -2.426243   -1.312509   1.731269 H        1 UNL1     0.0741
     69 H         0.159977   -1.828708   1.998465 H        1 UNL1     0.0359
     70 H         1.631338   -0.34212   2.788824 H        1 UNL1     0.0600
     71 H         2.527436   0.105713   0.864983 H        1 UNL1     0.0348
     72 H         2.274706   2.397855   1.648729 H        1 UNL1     0.0602
     73 H         -2.670792   3.331415   1.605667 H        1 UNL1     0.0628
     74 H         -1.304628   3.079923   4.349929 H        1 UNL1     0.1022
     75 H         5.648383   10.436742   -1.597909 H        1 UNL1     0.0279
     76 H         4.560897   10.182681   -2.904097 H        1 UNL1     0.0279
     77 H         4.47533   11.659579   -1.861626 H        1 UNL1     0.0279
     78 H         1.93705   10.467186   -2.646381 H        1 UNL1     0.1553
     79 H         2.200714   8.526725   -2.948566 H        1 UNL1     0.1484
     80 H         0.079909   5.405686   -3.396671 H        1 UNL1     0.0317
     81 H         -0.61656   7.005619   -3.184364 H        1 UNL1     0.0317
     82 H         1.150962   8.031769   -4.639214 H        1 UNL1     0.0428
     83 H         0.255158   6.767839   -5.452676 H        1 UNL1     0.0428
     84 H         4.074629   5.703412   -3.909378 H        1 UNL1     0.0428
     85 H         3.590077   7.348916   -3.693397 H        1 UNL1     0.0428
     86 H         3.302294   5.820088   -1.742828 H        1 UNL1     0.0317
     87 H         2.234767   4.790321   -2.580872 H        1 UNL1     0.0317
     88 H         2.700358   7.429005   -6.453401 H        1 UNL1     0.0429
     89 H         3.798652   6.064544   -6.233783 H        1 UNL1     0.0429
     90 H         1.144857   6.239894   -7.637157 H        1 UNL1     0.0308
     91 H         3.675056   4.537654   -7.94881 H        1 UNL1     0.0233
     92 H         2.207459   4.278398   -8.925765 H        1 UNL1     0.0233
     93 H         3.09034   5.785517   -9.042889 H        1 UNL1     0.0233
     94 H         0.8451   3.69238   -7.202075 H        1 UNL1     0.0233
     95 H         1.748377   4.023157   -5.715803 H        1 UNL1     0.0233
     96 H         0.214395   4.867225   -6.029554 H        1 UNL1     0.0233
     97 H         -4.408446   9.0013   3.341546 H        1 UNL1     0.0280
     98 H         -3.238387   9.587567   4.492389 H        1 UNL1     0.0280
     99 H         -3.885651   10.693039   3.243906 H        1 UNL1     0.0280
     100 H         -1.458956   12.054381   1.480888 H        1 UNL1     0.2922
     101 H         3.474671   3.660559   3.141496 H        1 UNL1     0.0236
     102 H         4.856911   4.474786   2.309324 H        1 UNL1     0.0236
     103 H         4.504755   2.795126   2.044327 H        1 UNL1     0.0236
     104 H         3.91487   1.152754   0.621072 H        1 UNL1     0.2098
     105 H         0.681508   1.220941   -1.027443 H        1 UNL1     0.0234
     106 H         1.360936   -0.42675   -0.906664 H        1 UNL1     0.0234
     107 H         0.0   -0.0   0.0 H        1 UNL1     0.0234
     108 H         1.13983   2.022571   2.919087 H        1 UNL1     0.2098
     109 H         -2.612939   2.392777   -0.30605 H        1 UNL1     0.0234
     110 H         -0.913955   2.215205   0.236834 H        1 UNL1     0.0234
     111 H         -1.559725   1.163021   -0.973428 H        1 UNL1     0.0234
     112 H         0.408859   -4.280856   0.059709 H        1 UNL1     0.0342
     113 H         -0.409241   -3.51601   1.468241 H        1 UNL1     0.0342
     114 H         -1.35933   -4.263401   0.18111 H        1 UNL1     0.0342
     115 H         -0.232079   -2.067667   4.169585 H        1 UNL1     0.0234
     116 H         -1.203794   -0.601171   4.330661 H        1 UNL1     0.0234
     117 H         -1.819336   -2.076941   3.558094 H        1 UNL1     0.0234
     118 H         -3.958912   4.550851   2.054299 H        1 UNL1     0.0309
     119 H         -4.083096   6.262952   1.543073 H        1 UNL1     0.0309
     120 H         -3.083615   5.115606   0.678902 H        1 UNL1     0.0309
     121 H         -2.926106   0.142992   5.398158 H        1 UNL1     0.0524
     122 H         -4.21665   0.696477   4.323445 H        1 UNL1     0.0524
     123 H         -3.416116   -0.86356   4.008527 H        1 UNL1     0.0524
@<TRIPOS>BOND
     1     1     2    1
     2     1    42    1
     3     2     3    2
     4     3     4    1
     5     4     5    2
     6     5     7    1
     7     6    75    1
     8     6    76    1
     9     6    77    1
    10     7     9   am
    11     9    10    1
    12    10    11    2
    13    10    43    1
    14    11    14    1
    15    11    15    1
    16    12    13   ar
    17    12    27   ar
    18    12    43    1
    19    13    14    1
    20    13    30   ar
    21    14    17    2
    22    15    16    1
    23    16    17    1
    24    16    18    1
    25    16    22    1
    26    18    19    1
    27    19    20    1
    28    20    21    1
    29    21    22    1
    30    23    24    1
    31    23    88    1
    32    23    89    1
    33    24    25    1
    34    24    26    1
    35    24    90    1
    36    25    91    1
    37    25    92    1
    38    25    93    1
    39    26    94    1
    40    26    95    1
    41    26    96    1
    42    27    28   ar
    43    28    29   ar
    44    29    30   ar
    45    29    31    1
    46    30    33    1
    47    31    32    1
    48    32    33    1
    49    32    35    1
    50    34    97    1
    51    34    98    1
    52    34    99    1
    53    35    61    1
    54    36    37    1
    55    36    60    1
    56    37    38    1
    57    38    39    1
    58    39    40    1
    59    40    41    1
    60    41    42    1
    61    45   100    1
    62    47   101    1
    63    47   102    1
    64    47   103    1
    65    48   104    1
    66    49   105    1
    67    49   106    1
    68    49   107    1
    69    50   108    1
    70    51    59    1
    71    52   109    1
    72    52   110    1
    73    52   111    1
    74    53    54    1
    75    54    55    2
    76    54    56    1
    77    56   112    1
    78    56   113    1
    79    56   114    1
    80    57   115    1
    81    57   116    1
    82    57   117    1
    83    58   118    1
    84    58   119    1
    85    58   120    1
    86    59   121    1
    87    59   122    1
    88    59   123    1
    89    60    61    2
    90     1    47    1
    91     1    62    1
    92     2    63    1
    93     3    64    1
    94     4    65    1
    95     5     6    1
    96     7     8    2
    97     9    78    1
    98    15    79    1
    99    18    80    1
   100    18    81    1
   101    19    82    1
   102    19    83    1
   103    20    23    1
   104    21    84    1
   105    21    85    1
   106    22    86    1
   107    22    87    1
   108    27    45    1
   109    28    34    1
   110    32    58    1
   111    33    46    2
   112    36    51    1
   113    36    66    1
   114    37    52    1
   115    37    67    1
   116    38    53    1
   117    38    68    1
   118    42    48    1
   119    42    72    1
   120    43    44    2
   121    60    73    1
   122    61    74    1
   123    39    69    1
   124    39    57    1
   125    40    70    1
   126    40    50    1
   127    41    71    1
   128    41    49    1
