@<TRIPOS>MOLECULE
*****
 123 128 0 0 0
SMALL
GASTEIGER

@<TRIPOS>ATOM
     1 C         3.589603   -2.33458   -2.764164 C.3        1 UNL1     0.0009
     2 C         4.891202   -3.652164   -2.681402 C.2        1 UNL1     -0.0787
     3 C         6.230387   -4.074431   -2.328811 C.2        1 UNL1     -0.0649
     4 C         6.88161   -5.635619   -2.399209 C.2        1 UNL1     -0.0542
     5 C         7.909796   -6.487193   -1.925148 C.2        1 UNL1     0.0115
     6 C         9.245905   -6.52378   -1.133444 C.3        1 UNL1     -0.0348
     7 C         7.730778   -8.07596   -2.069225 C.2        1 UNL1     0.2441
     8 O         8.292178   -8.733049   -2.935014 O.2        1 UNL1     -0.2702
     9 N         7.096419   -8.69836   -0.980025 N.am        1 UNL1     -0.2772
     10 C         5.731283   -8.693166   -1.15236 C.2        1 UNL1     0.1049
     11 C         5.104386   -7.585362   -0.800234 C.2        1 UNL1     0.0801
     12 C         3.93991   -9.223978   -2.815656 C.ar        1 UNL1     0.0753
     13 C         3.414584   -7.919607   -2.548716 C.ar        1 UNL1     0.0305
     14 C         3.905178   -7.110241   -1.43548 C.2        1 UNL1     0.0924
     15 N         5.548524   -6.526072   -0.102256 N.pl3        1 UNL1     -0.3170
     16 C         4.423459   -5.667242   0.156384 C.3        1 UNL1     0.1275
     17 N         3.472679   -5.936185   -0.98441 N.2        1 UNL1     -0.2557
     18 C         3.735107   -6.190058   1.413577 C.3        1 UNL1     0.0016
     19 C         4.755216   -6.244597   2.539628 C.3        1 UNL1     0.0026
     20 N         5.288935   -4.90637   2.752516 N.3        1 UNL1     -0.3018
     21 C         5.91713   -4.293794   1.580129 C.3        1 UNL1     0.0026
     22 C         4.873386   -4.244873   0.462946 C.3        1 UNL1     0.0016
     23 C         6.038342   -4.787981   3.987432 C.3        1 UNL1     0.0012
     24 C         5.787315   -6.007118   4.88879 C.3        1 UNL1     -0.0339
     25 C         5.492358   -7.268089   4.05993 C.3        1 UNL1     -0.0615
     26 C         6.966389   -6.215519   5.823206 C.3        1 UNL1     -0.0615
     27 C         3.385836   -10.037395   -3.80129 C.ar        1 UNL1     0.1347
     28 C         2.284159   -9.672581   -4.554462 C.ar        1 UNL1     0.0342
     29 C         1.814346   -8.365005   -4.308119 C.ar        1 UNL1     0.1435
     30 C         2.381978   -7.52516   -3.349123 C.ar        1 UNL1     0.0774
     31 O         0.682122   -7.903099   -4.882331 O.3        1 UNL1     -0.4436
     32 C         0.286636   -6.792882   -4.062646 C.3        1 UNL1     0.3143
     33 C         1.557382   -6.335159   -3.37569 C.2        1 UNL1     0.2504
     34 C         1.485126   -10.58206   -5.445806 C.3        1 UNL1     -0.0327
     35 O         -0.115957   -5.735932   -4.942435 O.2        1 UNL1     -0.4528
     36 C         -2.75502   -3.762357   -3.058706 C.3        1 UNL1     0.0854
     37 C         -2.652944   -3.048418   -1.656068 C.3        1 UNL1     0.0236
     38 C         -3.034572   -1.490831   -1.661143 C.3        1 UNL1     0.1131
     39 C         -2.364416   -0.52171   -2.716589 C.3        1 UNL1     0.0200
     40 C         -0.731284   -0.62447   -3.04025 C.3        1 UNL1     0.0661
     41 C         0.510624   -0.655135   -1.885116 C.3        1 UNL1     0.0091
     42 C         2.142543   -1.492625   -1.914287 C.3        1 UNL1     0.0661
     43 C         5.037563   -9.717413   -1.947359 C.2        1 UNL1     0.2131
     44 O         5.301036   -10.897142   -1.800527 O.2        1 UNL1     -0.2851
     45 O         3.985284   -11.274423   -4.02902 O.3        1 UNL1     -0.5056
     46 O         1.83539   -5.231309   -2.963284 O.2        1 UNL1     -0.2836
     47 C         3.902073   -1.339344   -3.913881 C.3        1 UNL1     -0.0566
     48 O         2.892046   -0.29663   -1.45936 O.3        1 UNL1     -0.3909
     49 C         -0.095144   -0.916432   -0.524137 C.3        1 UNL1     -0.0577
     50 O         -0.479208   -1.5847   -4.046301 O.3        1 UNL1     -0.3910
     51 O         -2.995071   -2.919492   -4.162964 O.3        1 UNL1     -0.3753
     52 C         -1.471297   -3.611923   -0.801011 C.3        1 UNL1     -0.0564
     53 O         -3.270519   -0.925846   -0.290944 O.3        1 UNL1     -0.4608
     54 C         -4.212465   0.016607   0.029135 C.2        1 UNL1     0.3042
     55 O         -4.580396   0.968348   -0.658364 O.2        1 UNL1     -0.2512
     56 C         -4.875247   -0.221985   1.355976 C.3        1 UNL1     0.0332
     57 C         -3.363968   -0.396269   -3.9589 C.3        1 UNL1     -0.0567
     58 C         -0.680593   -7.358697   -2.996884 C.3        1 UNL1     0.0210
     59 C         -2.901496   -1.523523   -3.883001 C.3        1 UNL1     0.0372
     60 C         -1.589598   -4.616376   -3.415921 C.2        1 UNL1     -0.0208
     61 C         -0.910896   -4.718388   -4.559469 C.2        1 UNL1     0.0882
     62 H         2.892363   -3.075905   -3.172827 H        1 UNL1     0.0365
     63 H         4.378255   -4.476721   -3.180862 H        1 UNL1     0.0576
     64 H         6.921754   -3.408832   -1.80718 H        1 UNL1     0.0615
     65 H         6.15888   -6.192539   -3.001692 H        1 UNL1     0.0622
     66 H         -3.610056   -4.445745   -2.959005 H        1 UNL1     0.0645
     67 H         -3.488285   -3.477162   -1.075598 H        1 UNL1     0.0362
     68 H         -4.091612   -1.561406   -1.959819 H        1 UNL1     0.0741
     69 H         -2.474102   0.497816   -2.371708 H        1 UNL1     0.0359
     70 H         -0.574687   0.349549   -3.542073 H        1 UNL1     0.0600
     71 H         0.738246   0.426781   -1.817268 H        1 UNL1     0.0348
     72 H         1.812048   -1.435877   -2.961602 H        1 UNL1     0.0602
     73 H         -1.399113   -5.296622   -2.623312 H        1 UNL1     0.0628
     74 H         -1.005289   -4.025737   -5.396466 H        1 UNL1     0.1022
     75 H         9.396786   -5.568741   -0.574723 H        1 UNL1     0.0279
     76 H         9.32308   -7.270408   -0.346259 H        1 UNL1     0.0279
     77 H         10.128752   -6.533038   -1.789337 H        1 UNL1     0.0279
     78 H         7.299327   -8.183102   -0.125967 H        1 UNL1     0.1553
     79 H         6.362663   -6.546994   0.483981 H        1 UNL1     0.1484
     80 H         2.897211   -5.528221   1.663913 H        1 UNL1     0.0317
     81 H         3.308738   -7.184178   1.241569 H        1 UNL1     0.0317
     82 H         5.560565   -6.962411   2.324991 H        1 UNL1     0.0428
     83 H         4.24382   -6.621699   3.42581 H        1 UNL1     0.0428
     84 H         6.237779   -3.260296   1.744074 H        1 UNL1     0.0428
     85 H         6.839224   -4.816472   1.290527 H        1 UNL1     0.0428
     86 H         5.322934   -3.67437   -0.328522 H        1 UNL1     0.0317
     87 H         4.023015   -3.62459   0.771517 H        1 UNL1     0.0317
     88 H         7.106592   -4.752809   3.736634 H        1 UNL1     0.0429
     89 H         5.799842   -3.852962   4.510531 H        1 UNL1     0.0429
     90 H         4.925093   -5.804504   5.535114 H        1 UNL1     0.0308
     91 H         4.415757   -7.425974   3.945452 H        1 UNL1     0.0233
     92 H         5.951482   -7.196558   3.071144 H        1 UNL1     0.0233
     93 H         5.899725   -8.175857   4.521281 H        1 UNL1     0.0233
     94 H         6.802749   -7.10164   6.445979 H        1 UNL1     0.0233
     95 H         7.879397   -6.375305   5.242819 H        1 UNL1     0.0233
     96 H         7.112094   -5.353502   6.480218 H        1 UNL1     0.0233
     97 H         1.487418   -10.245674   -6.478312 H        1 UNL1     0.0280
     98 H         1.886936   -11.603605   -5.461653 H        1 UNL1     0.0280
     99 H         0.440351   -10.616962   -5.096059 H        1 UNL1     0.0280
     100 H         3.383033   -11.972592   -4.217372 H        1 UNL1     0.2922
     101 H         4.955522   -1.408862   -4.184192 H        1 UNL1     0.0236
     102 H         3.604558   -0.315972   -3.687654 H        1 UNL1     0.0236
     103 H         3.358377   -1.591957   -4.839502 H        1 UNL1     0.0236
     104 H         2.246355   0.326571   -1.072484 H        1 UNL1     0.2098
     105 H         -1.149648   -1.17987   -0.544982 H        1 UNL1     0.0234
     106 H         0.458864   -1.623933   0.092664 H        1 UNL1     0.0234
     107 H         0.0   0.0   0.0 H        1 UNL1     0.0234
     108 H         -1.058758   -1.371232   -4.80282 H        1 UNL1     0.2098
     109 H         -1.48638   -3.232803   0.230373 H        1 UNL1     0.0234
     110 H         -1.432792   -4.706502   -0.78852 H        1 UNL1     0.0234
     111 H         -0.497015   -3.31596   -1.212262 H        1 UNL1     0.0234
     112 H         -4.765494   -1.272096   1.643322 H        1 UNL1     0.0342
     113 H         -4.488702   0.43771   2.131366 H        1 UNL1     0.0342
     114 H         -5.948333   -0.013327   1.245921 H        1 UNL1     0.0342
     115 H         -2.858269   -0.004001   -4.851974 H        1 UNL1     0.0234
     116 H         -3.843695   -1.336081   -4.239371 H        1 UNL1     0.0234
     117 H         -4.15484   0.359423   -3.812639 H        1 UNL1     0.0234
     118 H         -1.01117   -6.583399   -2.283696 H        1 UNL1     0.0309
     119 H         -1.560229   -7.84527   -3.430114 H        1 UNL1     0.0309
     120 H         -0.205784   -8.107627   -2.353636 H        1 UNL1     0.0309
     121 H         -3.787585   -1.043925   -4.297956 H        1 UNL1     0.0524
     122 H         -2.886814   -1.313996   -2.800448 H        1 UNL1     0.0524
     123 H         -2.004676   -1.108918   -4.334566 H        1 UNL1     0.0524
@<TRIPOS>BOND
     1     1     2    1
     2     1    42    1
     3     2     3    2
     4     3     4    1
     5     4     5    2
     6     5     7    1
     7     6    75    1
     8     6    76    1
     9     6    77    1
    10     7     9   am
    11     9    10    1
    12    10    11    2
    13    10    43    1
    14    11    14    1
    15    11    15    1
    16    12    13   ar
    17    12    27   ar
    18    12    43    1
    19    13    14    1
    20    13    30   ar
    21    14    17    2
    22    15    16    1
    23    16    17    1
    24    16    18    1
    25    16    22    1
    26    18    19    1
    27    19    20    1
    28    20    21    1
    29    21    22    1
    30    23    24    1
    31    23    88    1
    32    23    89    1
    33    24    25    1
    34    24    26    1
    35    24    90    1
    36    25    91    1
    37    25    92    1
    38    25    93    1
    39    26    94    1
    40    26    95    1
    41    26    96    1
    42    27    28   ar
    43    28    29   ar
    44    29    30   ar
    45    29    31    1
    46    30    33    1
    47    31    32    1
    48    32    33    1
    49    32    35    1
    50    34    97    1
    51    34    98    1
    52    34    99    1
    53    35    61    1
    54    36    37    1
    55    36    60    1
    56    37    38    1
    57    38    39    1
    58    39    40    1
    59    40    41    1
    60    41    42    1
    61    45   100    1
    62    47   101    1
    63    47   102    1
    64    47   103    1
    65    48   104    1
    66    49   105    1
    67    49   106    1
    68    49   107    1
    69    50   108    1
    70    51    59    1
    71    52   109    1
    72    52   110    1
    73    52   111    1
    74    53    54    1
    75    54    55    2
    76    54    56    1
    77    56   112    1
    78    56   113    1
    79    56   114    1
    80    57   115    1
    81    57   116    1
    82    57   117    1
    83    58   118    1
    84    58   119    1
    85    58   120    1
    86    59   121    1
    87    59   122    1
    88    59   123    1
    89    60    61    2
    90     1    47    1
    91     1    62    1
    92     2    63    1
    93     3    64    1
    94     4    65    1
    95     5     6    1
    96     7     8    2
    97     9    78    1
    98    15    79    1
    99    18    80    1
   100    18    81    1
   101    19    82    1
   102    19    83    1
   103    20    23    1
   104    21    84    1
   105    21    85    1
   106    22    86    1
   107    22    87    1
   108    27    45    1
   109    28    34    1
   110    32    58    1
   111    33    46    2
   112    36    51    1
   113    36    66    1
   114    37    52    1
   115    37    67    1
   116    38    53    1
   117    38    68    1
   118    42    48    1
   119    42    72    1
   120    43    44    2
   121    60    73    1
   122    61    74    1
   123    39    69    1
   124    39    57    1
   125    40    70    1
   126    40    50    1
   127    41    71    1
   128    41    49    1
