@<TRIPOS>MOLECULE
*****
 123 128 0 0 0
SMALL
GASTEIGER

@<TRIPOS>ATOM
     1 C         2.670694   3.838334   -1.319547 C.3        1 UNL1     0.0009
     2 C         3.420765   5.360835   -0.573612 C.2        1 UNL1     -0.0787
     3 C         3.291737   6.725259   -0.106979 C.2        1 UNL1     -0.0649
     4 C         4.455947   7.670932   0.678309 C.2        1 UNL1     -0.0542
     5 C         4.668752   8.80529   1.499907 C.2        1 UNL1     0.0115
     6 C         3.985444   10.057851   2.11432 C.3        1 UNL1     -0.0348
     7 C         6.065542   8.950126   2.277717 C.2        1 UNL1     0.2441
     8 O         6.961826   9.693655   1.903063 O.2        1 UNL1     -0.2702
     9 N         6.090883   8.366671   3.556423 N.am        1 UNL1     -0.2772
     10 C         6.461043   7.044012   3.47349 C.2        1 UNL1     0.1049
     11 C         5.500549   6.188493   3.173889 C.2        1 UNL1     0.0801
     12 C         8.179024   5.523811   2.476062 C.ar        1 UNL1     0.0753
     13 C         7.086784   4.735991   1.991334 C.ar        1 UNL1     0.0305
     14 C         5.715584   4.9725   2.437345 C.2        1 UNL1     0.0924
     15 N         4.168331   6.363057   3.138545 N.pl3        1 UNL1     -0.3170
     16 C         3.562068   5.075989   2.923707 C.3        1 UNL1     0.1275
     17 N         4.607032   4.286566   2.173651 N.2        1 UNL1     -0.2557
     18 C         3.424783   4.407412   4.288207 C.3        1 UNL1     0.0016
     19 C         2.634517   5.328638   5.203856 C.3        1 UNL1     0.0026
     20 N         1.328974   5.574041   4.606893 N.3        1 UNL1     -0.3018
     21 C         1.359057   6.159799   3.265122 C.3        1 UNL1     0.0026
     22 C         2.15374   5.215868   2.361039 C.3        1 UNL1     0.0016
     23 C         0.394074   6.188536   5.528306 C.3        1 UNL1     0.0012
     24 C         1.126278   6.694007   6.781356 C.3        1 UNL1     -0.0339
     25 C         1.067237   8.226767   6.88726 C.3        1 UNL1     -0.0615
     26 C         0.558492   6.02571   8.021428 C.3        1 UNL1     -0.0615
     27 C         9.495493   5.216162   2.140831 C.ar        1 UNL1     0.1347
     28 C         9.845076   4.126085   1.36393 C.ar        1 UNL1     0.0342
     29 C         8.75038   3.393518   0.857819 C.ar        1 UNL1     0.1435
     30 C         7.424659   3.711345   1.155598 C.ar        1 UNL1     0.0774
     31 O         8.928461   2.240885   0.176108 O.3        1 UNL1     -0.4436
     32 C         7.658849   1.575097   0.251495 C.3        1 UNL1     0.3143
     33 C         6.648823   2.675758   0.505674 C.2        1 UNL1     0.2504
     34 C         11.236502   3.590284   1.171708 C.3        1 UNL1     -0.0327
     35 O         7.378503   1.043907   -1.049464 O.2        1 UNL1     -0.4528
     36 C         5.279388   -2.065788   -0.473612 C.3        1 UNL1     0.0854
     37 C         3.903443   -2.213002   0.283108 C.3        1 UNL1     0.0236
     38 C         2.729093   -2.888514   -0.574989 C.3        1 UNL1     0.1131
     39 C         2.398308   -2.340044   -2.021374 C.3        1 UNL1     0.0200
     40 C         2.327854   -0.698062   -2.306631 C.3        1 UNL1     0.0661
     41 C         1.456928   0.433173   -1.390439 C.3        1 UNL1     0.0091
     42 C         1.815   2.194028   -1.020875 C.3        1 UNL1     0.0661
     43 C         7.86989   6.626063   3.42038 C.2        1 UNL1     0.2131
     44 O         8.68507   7.101653   4.189817 O.2        1 UNL1     -0.2851
     45 O         10.496547   6.060351   2.616934 O.3        1 UNL1     -0.5056
     46 O         5.473371   2.701251   0.216679 O.2        1 UNL1     -0.2836
     47 C         2.444259   4.039229   -2.84216 C.3        1 UNL1     -0.0566
     48 O         0.445463   2.659401   -1.347849 O.3        1 UNL1     -0.3909
     49 C         1.034369   -0.213484   -0.090141 C.3        1 UNL1     -0.0577
     50 O         3.609492   -0.187276   -2.613587 O.3        1 UNL1     -0.3910
     51 O         5.263184   -2.379094   -1.848024 O.3        1 UNL1     -0.3753
     52 C         3.640992   -1.013973   1.251817 C.3        1 UNL1     -0.0564
     53 O         1.56017   -3.334825   0.253717 O.3        1 UNL1     -0.4608
     54 C         0.901716   -2.567098   1.178358 C.2        1 UNL1     0.3042
     55 O         -0.200347   -2.784039   1.680587 O.2        1 UNL1     -0.2512
     56 C         1.685609   -1.369007   1.633115 C.3        1 UNL1     0.0332
     57 C         3.191888   -3.245971   -3.073848 C.3        1 UNL1     -0.0567
     58 C         7.719543   0.656943   1.494411 C.3        1 UNL1     0.0210
     59 C         6.431403   -3.045336   -2.32473 C.3        1 UNL1     0.0372
     60 C         5.928348   -0.73258   -0.344897 C.2        1 UNL1     -0.0208
     61 C         6.507875   0.039221   -1.265341 C.2        1 UNL1     0.0882
     62 H         3.637492   3.332133   -1.211048 H        1 UNL1     0.0365
     63 H         4.467511   5.058038   -0.502142 H        1 UNL1     0.0576
     64 H         2.324345   7.231713   -0.079352 H        1 UNL1     0.0615
     65 H         5.387123   7.118928   0.524407 H        1 UNL1     0.0622
     66 H         5.949052   -2.776801   0.030429 H        1 UNL1     0.0645
     67 H         4.096602   -2.991359   1.041666 H        1 UNL1     0.0362
     68 H         3.167689   -3.88541   -0.734219 H        1 UNL1     0.0741
     69 H         1.407446   -2.672071   -2.301299 H        1 UNL1     0.0359
     70 H         1.790092   -0.695487   -3.274033 H        1 UNL1     0.0600
     71 H         0.501004   0.440257   -1.950005 H        1 UNL1     0.0348
     72 H         2.419007   1.940661   -1.904219 H        1 UNL1     0.0602
     73 H         5.996909   -0.475289   0.682891 H        1 UNL1     0.0628
     74 H         6.434392   -0.123085   -2.34121 H        1 UNL1     0.1022
     75 H         2.878225   9.919034   2.157122 H        1 UNL1     0.0279
     76 H         4.232911   10.287332   3.148326 H        1 UNL1     0.0279
     77 H         4.067874   10.945946   1.470742 H        1 UNL1     0.0279
     78 H         5.15946   8.399022   3.965669 H        1 UNL1     0.1553
     79 H         3.693137   7.118006   3.598084 H        1 UNL1     0.1484
     80 H         2.923273   3.44009   4.163538 H        1 UNL1     0.0317
     81 H         4.408428   4.196955   4.721567 H        1 UNL1     0.0317
     82 H         3.167922   6.272256   5.390877 H        1 UNL1     0.0428
     83 H         2.549998   4.833427   6.171674 H        1 UNL1     0.0428
     84 H         0.369736   6.259844   2.807907 H        1 UNL1     0.0428
     85 H         1.75309   7.185443   3.275581 H        1 UNL1     0.0428
     86 H         2.042384   5.6057   1.366243 H        1 UNL1     0.0317
     87 H         1.655881   4.239927   2.308385 H        1 UNL1     0.0317
     88 H         -0.068518   7.04686   5.023743 H        1 UNL1     0.0429
     89 H         -0.415846   5.497301   5.794759 H        1 UNL1     0.0429
     90 H         2.177878   6.387724   6.730941 H        1 UNL1     0.0308
     91 H         0.513492   8.66225   6.050108 H        1 UNL1     0.0233
     92 H         0.597239   8.531349   7.825312 H        1 UNL1     0.0233
     93 H         2.063893   8.684459   6.881868 H        1 UNL1     0.0233
     94 H         0.86789   6.571067   8.91959 H        1 UNL1     0.0233
     95 H         -0.534391   6.032791   7.98247 H        1 UNL1     0.0233
     96 H         0.901859   4.991182   8.109859 H        1 UNL1     0.0233
     97 H         11.35996   3.11515   0.203082 H        1 UNL1     0.0280
     98 H         11.994974   4.382725   1.21659 H        1 UNL1     0.0280
     99 H         11.455904   2.844279   1.953012 H        1 UNL1     0.0280
     100 H         10.223719   6.642517   3.304153 H        1 UNL1     0.2922
     101 H         3.005131   4.908137   -3.185785 H        1 UNL1     0.0236
     102 H         1.391086   4.098273   -3.114783 H        1 UNL1     0.0236
     103 H         2.841104   3.197845   -3.434427 H        1 UNL1     0.0236
     104 H         0.128973   3.196595   -0.595368 H        1 UNL1     0.2098
     105 H         1.154501   -1.293666   -0.065911 H        1 UNL1     0.0234
     106 H         1.468138   0.234998   0.803522 H        1 UNL1     0.0234
     107 H         0.0   0.0   0.0 H        1 UNL1     0.0234
     108 H         3.496396   0.471142   -3.325952 H        1 UNL1     0.2098
     109 H         3.117   -1.325062   2.166349 H        1 UNL1     0.0234
     110 H         4.552819   -0.469192   1.519268 H        1 UNL1     0.0234
     111 H         3.001615   -0.251216   0.787764 H        1 UNL1     0.0234
     112 H         1.011284   -0.522554   1.794825 H        1 UNL1     0.0342
     113 H         2.271495   -1.578093   2.526907 H        1 UNL1     0.0342
     114 H         2.386143   -1.093399   0.83283 H        1 UNL1     0.0342
     115 H         4.136163   -2.778319   -3.385031 H        1 UNL1     0.0234
     116 H         3.426265   -4.248052   -2.709225 H        1 UNL1     0.0234
     117 H         2.675199   -3.348627   -4.043608 H        1 UNL1     0.0234
     118 H         8.712818   0.19081   1.617419 H        1 UNL1     0.0309
     119 H         7.447767   1.170883   2.421884 H        1 UNL1     0.0309
     120 H         7.045164   -0.202742   1.415295 H        1 UNL1     0.0309
     121 H         7.028334   -2.314676   -2.86986 H        1 UNL1     0.0524
     122 H         7.054463   -3.436574   -1.503288 H        1 UNL1     0.0524
     123 H         6.154769   -3.866834   -2.979489 H        1 UNL1     0.0524
@<TRIPOS>BOND
     1     1     2    1
     2     1    42    1
     3     2     3    2
     4     3     4    1
     5     4     5    2
     6     5     7    1
     7     6    75    1
     8     6    76    1
     9     6    77    1
    10     7     9   am
    11     9    10    1
    12    10    11    2
    13    10    43    1
    14    11    14    1
    15    11    15    1
    16    12    13   ar
    17    12    27   ar
    18    12    43    1
    19    13    14    1
    20    13    30   ar
    21    14    17    2
    22    15    16    1
    23    16    17    1
    24    16    18    1
    25    16    22    1
    26    18    19    1
    27    19    20    1
    28    20    21    1
    29    21    22    1
    30    23    24    1
    31    23    88    1
    32    23    89    1
    33    24    25    1
    34    24    26    1
    35    24    90    1
    36    25    91    1
    37    25    92    1
    38    25    93    1
    39    26    94    1
    40    26    95    1
    41    26    96    1
    42    27    28   ar
    43    28    29   ar
    44    29    30   ar
    45    29    31    1
    46    30    33    1
    47    31    32    1
    48    32    33    1
    49    32    35    1
    50    34    97    1
    51    34    98    1
    52    34    99    1
    53    35    61    1
    54    36    37    1
    55    36    60    1
    56    37    38    1
    57    38    39    1
    58    39    40    1
    59    40    41    1
    60    41    42    1
    61    45   100    1
    62    47   101    1
    63    47   102    1
    64    47   103    1
    65    48   104    1
    66    49   105    1
    67    49   106    1
    68    49   107    1
    69    50   108    1
    70    51    59    1
    71    52   109    1
    72    52   110    1
    73    52   111    1
    74    53    54    1
    75    54    55    2
    76    54    56    1
    77    56   112    1
    78    56   113    1
    79    56   114    1
    80    57   115    1
    81    57   116    1
    82    57   117    1
    83    58   118    1
    84    58   119    1
    85    58   120    1
    86    59   121    1
    87    59   122    1
    88    59   123    1
    89    60    61    2
    90     1    47    1
    91     1    62    1
    92     2    63    1
    93     3    64    1
    94     4    65    1
    95     5     6    1
    96     7     8    2
    97     9    78    1
    98    15    79    1
    99    18    80    1
   100    18    81    1
   101    19    82    1
   102    19    83    1
   103    20    23    1
   104    21    84    1
   105    21    85    1
   106    22    86    1
   107    22    87    1
   108    27    45    1
   109    28    34    1
   110    32    58    1
   111    33    46    2
   112    36    51    1
   113    36    66    1
   114    37    52    1
   115    37    67    1
   116    38    53    1
   117    38    68    1
   118    42    48    1
   119    42    72    1
   120    43    44    2
   121    60    73    1
   122    61    74    1
   123    39    69    1
   124    39    57    1
   125    40    70    1
   126    40    50    1
   127    41    71    1
   128    41    49    1
