@<TRIPOS>MOLECULE
1W1P_GIO_B_1501
   21    22     0 0 0
SMALL
USER_CHARGES


@<TRIPOS>ATOM
     1 O1         -3.482964   -3.50316   0.437298 O.2        1 SUBUNIT     0.0000
     2 C2         -3.819512   -2.393967   0.849219 C.2        1 SUBUNIT     0.0000
     3 C3         -3.11106   -1.138628   0.341085 C.3        1 SUBUNIT     0.0000
     4 C4         -1.647736   -1.425113   -0.0 C.3        1 SUBUNIT     0.0000
     5 C5         -1.09   0.0   0.0 C.3        1 SUBUNIT     0.0000
     6 C6         -1.648225   0.551559   1.315408 C.3        1 SUBUNIT     0.0000
     7 N7         -2.957619   -0.136033   1.405918 N.am        1 SUBUNIT     0.0000
     8 C8         -3.955618   -0.024155   2.383564 C.2        1 SUBUNIT     0.0000
     9 O9         -3.83265   0.796197   3.292739 O.2        1 SUBUNIT     0.0000
     10 C10         -5.190441   -0.929115   2.345932 C.3        1 SUBUNIT     0.0000
     11 N11         -4.837246   -2.26233   1.803496 N.am        1 SUBUNIT     0.0000
     12 H1         -3.634789   -0.717212   -0.516946 H        1 SUBUNIT     0.0000
     13 H2         -1.170126   -2.046111   0.757859 H        1 SUBUNIT     0.0000
     14 H3         -1.545546   -1.899187   -0.976172 H        1 SUBUNIT     0.0000
     15 H4         0.0   0.0   0.0 H        1 SUBUNIT     0.0000
     16 H5         -1.453849   0.568982   -0.855555 H        1 SUBUNIT     0.0000
     17 H6         -1.006136   0.293057   2.157428 H        1 SUBUNIT     0.0000
     18 H7         -1.771414   1.633646   1.270546 H        1 SUBUNIT     0.0000
     19 H8         -5.581728   -1.044855   3.356673 H        1 SUBUNIT     0.0000
     20 H9         -5.950536   -0.473202   1.711503 H        1 SUBUNIT     0.0000
     21 H10         -5.362941   -3.130311   2.142836 H        1 SUBUNIT     0.0000
@<TRIPOS>BOND
     1    1    2 2
     2    2    3 1
     3    3    4 1
     4    4    5 1
     5    5    6 1
     6    3    7 1
     7    6    7 1
     8    7    8 1
     9    8    9 2
    10    8   10 1
    11    2   11 1
    12   10   11 1
    13    3   12 1
    14    4   13 1
    15    4   14 1
    16    5   15 1
    17    5   16 1
    18    6   17 1
    19    6   18 1
    20   10   19 1
    21   10   20 1
    22   11   21 1
@<SCITEGIC>ATOM_PROPERTY
Formal Charge
SciTegic.value.StringValue
1 0
2 0
3 0
4 0
5 0
6 0
7 0
8 0
9 0
10 0
11 0
12 0
13 0
14 0
15 0
16 0
17 0
18 0
19 0
20 0
21 0

@<SCITEGIC>ATOM_PROPERTY
pdb_tempFactor
SciTegic.value.DoubleValue
1 0.00
2 0.00
3 0.00
4 0.00
5 0.00
6 0.00
7 0.00
8 0.00
9 0.00
10 0.00
11 0.00
12 0.00
13 0.00
14 0.00
15 0.00
16 0.00
17 0.00
18 0.00
19 0.00
20 0.00
21 0.00

@<SCITEGIC>ATOM_PROPERTY
pdb_occupancy
SciTegic.value.DoubleValue
1 1.00
2 1.00
3 1.00
4 1.00
5 1.00
6 1.00
7 1.00
8 1.00
9 1.00
10 1.00
11 1.00
12 1.00
13 1.00
14 1.00
15 1.00
16 1.00
17 1.00
18 1.00
19 1.00
20 1.00
21 1.00

