@<TRIPOS>MOLECULE
*****
 50 53 0 0 0
SMALL
GASTEIGER

@<TRIPOS>ATOM
     1 C         -0.392708   -1.377823   1.648693 C.3        1 UNL1     0.1889
     2 C         -0.492446   -0.968057   0.154677 C.3        1 UNL1     0.1342
     3 C         -1.924886   -0.895257   -0.396033 C.3        1 UNL1     0.1174
     4 C         -2.84972   -1.951409   0.214167 C.3        1 UNL1     0.1456
     5 C         -2.719956   -2.035447   1.745983 C.3        1 UNL1     0.2326
     6 O         -1.366697   -2.30488   2.105099 O.3        1 UNL1     -0.3076
     7 O         -3.271189   -0.896238   2.431306 O.3        1 UNL1     -0.4605
     8 C         -3.814588   -1.143943   3.679059 C.ar        1 UNL1     0.1310
     9 C         -4.670291   -2.204981   3.994136 C.ar        1 UNL1     0.0226
     10 C         -5.15583   -2.381303   5.295314 C.ar        1 UNL1     0.1343
     11 C         -4.778031   -1.513735   6.319245 C.ar        1 UNL1     0.1007
     12 C         -3.956837   -0.4267   6.008152 C.ar        1 UNL1     0.1389
     13 C         -3.470886   -0.248105   4.699188 C.ar        1 UNL1     0.0229
     14 C         -5.193808   -1.701745   7.728478 C.2        1 UNL1     0.1740
     15 C         -4.518002   -0.810984   8.729168 C.3        1 UNL1     0.0520
     16 C         -4.393839   0.582125   8.12768 C.3        1 UNL1     0.1322
     17 O         -3.610673   0.548784   6.914169 O.3        1 UNL1     -0.4828
     18 C         -5.728942   1.319802   8.000971 C.ar        1 UNL1     -0.0067
     19 C         -5.981216   2.440588   8.818534 C.ar        1 UNL1     -0.0516
     20 C         -7.209896   3.109222   8.76165 C.ar        1 UNL1     -0.0198
     21 C         -8.194917   2.663423   7.898617 C.ar        1 UNL1     0.1169
     22 C         -7.964191   1.583032   7.056976 C.ar        1 UNL1     -0.0198
     23 C         -6.72893   0.925538   7.100429 C.ar        1 UNL1     -0.0516
     24 O         -9.392358   3.316518   7.897988 O.3        1 UNL1     -0.5068
     25 O         -5.977183   -2.575263   8.091485 O.2        1 UNL1     -0.2917
     26 O         -5.987738   -3.435524   5.536418 O.3        1 UNL1     -0.5058
     27 O         -0.266868   -0.273637   2.53058 O.3        1 UNL1     -0.3648
     28 O         0.220582   -1.939367   -0.633265 O.3        1 UNL1     -0.3841
     29 O         -2.446007   0.430291   -0.279898 O.3        1 UNL1     -0.3863
     30 O         -2.531891   -3.242286   -0.350024 O.3        1 UNL1     -0.3829
     31 H         0.551367   -1.921957   1.761477 H        1 UNL1     0.0937
     32 H         0.0   0.0   0.0 H        1 UNL1     0.0671
     33 H         -1.879922   -1.097569   -1.475278 H        1 UNL1     0.0649
     34 H         -3.890762   -1.734003   -0.04921 H        1 UNL1     0.0683
     35 H         -3.303899   -2.925312   2.012494 H        1 UNL1     0.1085
     36 H         -4.956199   -2.945642   3.255354 H        1 UNL1     0.0691
     37 H         -2.833945   0.606824   4.482636 H        1 UNL1     0.0691
     38 H         -3.53238   -1.238959   8.941098 H        1 UNL1     0.0385
     39 H         -5.097731   -0.810559   9.658518 H        1 UNL1     0.0385
     40 H         -3.794614   1.183438   8.824726 H        1 UNL1     0.0789
     41 H         -5.227658   2.804562   9.510865 H        1 UNL1     0.0623
     42 H         -7.396659   3.964974   9.405716 H        1 UNL1     0.0654
     43 H         -8.723178   1.234876   6.366588 H        1 UNL1     0.0654
     44 H         -6.579297   0.091749   6.421275 H        1 UNL1     0.0623
     45 H         -9.408979   3.92583   7.142223 H        1 UNL1     0.2921
     46 H         -5.784257   -3.816048   6.405446 H        1 UNL1     0.2922
     47 H         0.456453   0.301946   2.245324 H        1 UNL1     0.2126
     48 H         1.171497   -1.78853   -0.469734 H        1 UNL1     0.2101
     49 H         -3.002908   0.497748   0.512001 H        1 UNL1     0.2100
     50 H         -2.778711   -3.226078   -1.297932 H        1 UNL1     0.2102
@<TRIPOS>BOND
     1     1     2    1
     2     1     6    1
     3     2     3    1
     4     3     4    1
     5     3    29    1
     6     3    33    1
     7     4     5    1
     8     5     6    1
     9     5     7    1
    10     5    35    1
    11     7     8    1
    12     8     9   ar
    13     8    13   ar
    14     9    10   ar
    15     9    36    1
    16    10    11   ar
    17    10    26    1
    18    11    12   ar
    19    11    14    1
    20    12    13   ar
    21    12    17    1
    22    13    37    1
    23    14    15    1
    24    14    25    2
    25    15    16    1
    26    15    38    1
    27    15    39    1
    28    16    17    1
    29    16    18    1
    30    16    40    1
    31    18    19   ar
    32    18    23   ar
    33    19    20   ar
    34    19    41    1
    35    20    21   ar
    36    20    42    1
    37    21    22   ar
    38    21    24    1
    39    22    23   ar
    40    22    43    1
    41    23    44    1
    42    24    45    1
    43    26    46    1
    44    27    47    1
    45    28    48    1
    46    29    49    1
    47    30    50    1
    48     1    31    1
    49     1    27    1
    50     2    32    1
    51     2    28    1
    52     4    34    1
    53     4    30    1
