@<TRIPOS>MOLECULE
*****
 50 53 0 0 0
SMALL
GASTEIGER

@<TRIPOS>ATOM
     1 C         -0.698305   -1.819681   0.985868 C.3        1 UNL1     0.1889
     2 C         -0.003649   -1.080599   -0.189355 C.3        1 UNL1     0.1342
     3 C         -0.624167   -1.345365   -1.569689 C.3        1 UNL1     0.1174
     4 C         -1.157151   -2.772731   -1.716895 C.3        1 UNL1     0.1456
     5 C         -1.995276   -3.217763   -0.504518 C.3        1 UNL1     0.2326
     6 O         -1.222332   -3.105466   0.6883 O.3        1 UNL1     -0.3076
     7 O         -3.271127   -2.557656   -0.416287 O.3        1 UNL1     -0.4605
     8 C         -4.297485   -3.294898   0.146376 C.ar        1 UNL1     0.1310
     9 C         -4.601335   -4.625833   -0.159546 C.ar        1 UNL1     0.0226
     10 C         -5.653446   -5.29316   0.478921 C.ar        1 UNL1     0.1343
     11 C         -6.412877   -4.65246   1.456984 C.ar        1 UNL1     0.1007
     12 C         -6.145269   -3.310761   1.741615 C.ar        1 UNL1     0.1389
     13 C         -5.08902   -2.639183   1.097601 C.ar        1 UNL1     0.0229
     14 C         -7.481367   -5.335321   2.222611 C.2        1 UNL1     0.1740
     15 C         -8.040668   -4.566784   3.383681 C.3        1 UNL1     0.0520
     16 C         -8.180921   -3.107505   2.972836 C.3        1 UNL1     0.1322
     17 O         -6.89831   -2.552112   2.607436 O.3        1 UNL1     -0.4828
     18 C         -9.293871   -2.859053   1.951888 C.ar        1 UNL1     -0.0067
     19 C         -9.020231   -2.089197   0.802689 C.ar        1 UNL1     -0.0516
     20 C         -10.027224   -1.803315   -0.126933 C.ar        1 UNL1     -0.0198
     21 C         -11.310719   -2.274235   0.084499 C.ar        1 UNL1     0.1169
     22 C         -11.603392   -3.063027   1.189483 C.ar        1 UNL1     -0.0198
     23 C         -10.592322   -3.364522   2.109752 C.ar        1 UNL1     -0.0516
     24 O         -12.273964   -1.943903   -0.822937 O.3        1 UNL1     -0.5068
     25 O         -7.847713   -6.485097   1.993943 O.2        1 UNL1     -0.2917
     26 O         -5.898611   -6.590343   0.134252 O.3        1 UNL1     -0.5058
     27 O         -1.6407   -1.017815   1.679907 O.3        1 UNL1     -0.3648
     28 O         1.370079   -1.507345   -0.248241 O.3        1 UNL1     -0.3841
     29 O         -1.603893   -0.353616   -1.88386 O.3        1 UNL1     -0.3863
     30 O         -0.044402   -3.680463   -1.870195 O.3        1 UNL1     -0.3829
     31 H         0.079549   -2.025934   1.729159 H        1 UNL1     0.0937
     32 H         0.0   0.0   0.0 H        1 UNL1     0.0671
     33 H         0.167181   -1.222428   -2.322267 H        1 UNL1     0.0649
     34 H         -1.764168   -2.853435   -2.62542 H        1 UNL1     0.0683
     35 H         -2.162038   -4.288441   -0.676906 H        1 UNL1     0.1085
     36 H         -4.013098   -5.196212   -0.870014 H        1 UNL1     0.0691
     37 H         -4.901877   -1.59441   1.33618 H        1 UNL1     0.0691
     38 H         -7.342493   -4.676171   4.220408 H        1 UNL1     0.0385
     39 H         -8.999044   -5.008026   3.677958 H        1 UNL1     0.0385
     40 H         -8.477987   -2.546042   3.868956 H        1 UNL1     0.0789
     41 H         -8.022981   -1.700287   0.618591 H        1 UNL1     0.0623
     42 H         -9.806446   -1.19861   -1.003061 H        1 UNL1     0.0654
     43 H         -12.601622   -3.449554   1.356943 H        1 UNL1     0.0654
     44 H         -10.854014   -3.992271   2.956093 H        1 UNL1     0.0623
     45 H         -12.355901   -0.976679   -0.844851 H        1 UNL1     0.2921
     46 H         -5.856994   -7.148984   0.926463 H        1 UNL1     0.2922
     47 H         -1.220121   -0.207027   1.998647 H        1 UNL1     0.2126
     48 H         1.779619   -1.24963   0.600047 H        1 UNL1     0.2101
     49 H         -1.170793   0.501221   -2.037068 H        1 UNL1     0.2100
     50 H         0.398124   -3.474246   -2.719524 H        1 UNL1     0.2102
@<TRIPOS>BOND
     1     1     2    1
     2     1     6    1
     3     2     3    1
     4     3     4    1
     5     3    29    1
     6     3    33    1
     7     4     5    1
     8     5     6    1
     9     5     7    1
    10     5    35    1
    11     7     8    1
    12     8     9   ar
    13     8    13   ar
    14     9    10   ar
    15     9    36    1
    16    10    11   ar
    17    10    26    1
    18    11    12   ar
    19    11    14    1
    20    12    13   ar
    21    12    17    1
    22    13    37    1
    23    14    15    1
    24    14    25    2
    25    15    16    1
    26    15    38    1
    27    15    39    1
    28    16    17    1
    29    16    18    1
    30    16    40    1
    31    18    19   ar
    32    18    23   ar
    33    19    20   ar
    34    19    41    1
    35    20    21   ar
    36    20    42    1
    37    21    22   ar
    38    21    24    1
    39    22    23   ar
    40    22    43    1
    41    23    44    1
    42    24    45    1
    43    26    46    1
    44    27    47    1
    45    28    48    1
    46    29    49    1
    47    30    50    1
    48     1    31    1
    49     1    27    1
    50     2    32    1
    51     2    28    1
    52     4    34    1
    53     4    30    1
