@<TRIPOS>MOLECULE
*****
 50 53 0 0 0
SMALL
GASTEIGER

@<TRIPOS>ATOM
     1 C         1.048943   -1.753777   -0.771225 C.3        1 UNL1     0.1889
     2 C         -0.217879   -0.8667   -0.636335 C.3        1 UNL1     0.1342
     3 C         -1.45439   -1.593994   -0.086289 C.3        1 UNL1     0.1174
     4 C         -1.53617   -3.053115   -0.541695 C.3        1 UNL1     0.1456
     5 C         -0.195359   -3.794586   -0.39066 C.3        1 UNL1     0.2326
     6 O         0.822444   -3.111738   -1.119127 O.3        1 UNL1     -0.3076
     7 O         0.165465   -4.053478   0.978318 O.3        1 UNL1     -0.4605
     8 C         0.898434   -5.20457   1.204753 C.ar        1 UNL1     0.1310
     9 C         0.618506   -6.463361   0.66218 C.ar        1 UNL1     0.0226
     10 C         1.432997   -7.567963   0.938517 C.ar        1 UNL1     0.1343
     11 C         2.561921   -7.435176   1.745822 C.ar        1 UNL1     0.1007
     12 C         2.828544   -6.19238   2.32647 C.ar        1 UNL1     0.1389
     13 C         2.007926   -5.082467   2.050588 C.ar        1 UNL1     0.0229
     14 C         3.503748   -8.549217   2.002782 C.2        1 UNL1     0.1740
     15 C         4.775975   -8.175009   2.70489 C.3        1 UNL1     0.0520
     16 C         4.446252   -7.160822   3.791475 C.3        1 UNL1     0.1322
     17 O         3.849874   -5.974668   3.221877 O.3        1 UNL1     -0.4828
     18 C         3.675586   -7.753142   4.973826 C.ar        1 UNL1     -0.0067
     19 C         2.519069   -7.098152   5.444644 C.ar        1 UNL1     -0.0516
     20 C         1.817895   -7.586882   6.553455 C.ar        1 UNL1     -0.0198
     21 C         2.266232   -8.722966   7.203173 C.ar        1 UNL1     0.1169
     22 C         3.382653   -9.408914   6.742826 C.ar        1 UNL1     -0.0198
     23 C         4.073374   -8.930834   5.622826 C.ar        1 UNL1     -0.0516
     24 O         1.579437   -9.1478   8.302368 O.3        1 UNL1     -0.5068
     25 O         3.317495   -9.696925   1.607103 O.2        1 UNL1     -0.2917
     26 O         1.104462   -8.768172   0.378921 O.3        1 UNL1     -0.5058
     27 O         1.941062   -1.635909   0.325596 O.3        1 UNL1     -0.3648
     28 O         -0.562303   -0.362124   -1.939976 O.3        1 UNL1     -0.3841
     29 O         -1.53653   -1.451854   1.333282 O.3        1 UNL1     -0.3863
     30 O         -1.935831   -3.094748   -1.92886 O.3        1 UNL1     -0.3829
     31 H         1.615698   -1.362319   -1.623063 H        1 UNL1     0.0937
     32 H         0.0   0.0   0.0 H        1 UNL1     0.0671
     33 H         -2.345398   -1.087054   -0.482316 H        1 UNL1     0.0649
     34 H         -2.307601   -3.580682   0.030117 H        1 UNL1     0.0683
     35 H         -0.363822   -4.752077   -0.899294 H        1 UNL1     0.1085
     36 H         -0.212054   -6.619458   -0.017469 H        1 UNL1     0.0691
     37 H         2.236367   -4.126062   2.515988 H        1 UNL1     0.0691
     38 H         5.453093   -7.747349   1.957799 H        1 UNL1     0.0385
     39 H         5.2416   -9.079712   3.110458 H        1 UNL1     0.0385
     40 H         5.400376   -6.81407   4.210914 H        1 UNL1     0.0789
     41 H         2.152013   -6.199423   4.957605 H        1 UNL1     0.0623
     42 H         0.93431   -7.066143   6.914178 H        1 UNL1     0.0654
     43 H         3.733681   -10.308054   7.235003 H        1 UNL1     0.0654
     44 H         4.935227   -9.497743   5.284198 H        1 UNL1     0.0623
     45 H         1.603955   -8.443641   8.970407 H        1 UNL1     0.2921
     46 H         1.854994   -9.100024   -0.138755 H        1 UNL1     0.2922
     47 H         2.194205   -0.711004   0.453382 H        1 UNL1     0.2126
     48 H         0.194894   0.176495   -2.240433 H        1 UNL1     0.2101
     49 H         -1.746658   -0.532252   1.561256 H        1 UNL1     0.2100
     50 H         -2.84956   -2.746783   -1.989947 H        1 UNL1     0.2102
@<TRIPOS>BOND
     1     1     2    1
     2     1     6    1
     3     2     3    1
     4     3     4    1
     5     3    29    1
     6     3    33    1
     7     4     5    1
     8     5     6    1
     9     5     7    1
    10     5    35    1
    11     7     8    1
    12     8     9   ar
    13     8    13   ar
    14     9    10   ar
    15     9    36    1
    16    10    11   ar
    17    10    26    1
    18    11    12   ar
    19    11    14    1
    20    12    13   ar
    21    12    17    1
    22    13    37    1
    23    14    15    1
    24    14    25    2
    25    15    16    1
    26    15    38    1
    27    15    39    1
    28    16    17    1
    29    16    18    1
    30    16    40    1
    31    18    19   ar
    32    18    23   ar
    33    19    20   ar
    34    19    41    1
    35    20    21   ar
    36    20    42    1
    37    21    22   ar
    38    21    24    1
    39    22    23   ar
    40    22    43    1
    41    23    44    1
    42    24    45    1
    43    26    46    1
    44    27    47    1
    45    28    48    1
    46    29    49    1
    47    30    50    1
    48     1    31    1
    49     1    27    1
    50     2    32    1
    51     2    28    1
    52     4    34    1
    53     4    30    1
