@<TRIPOS>MOLECULE
*****
 50 53 0 0 0
SMALL
GASTEIGER

@<TRIPOS>ATOM
     1 C         -0.370261   -1.397389   1.63738 C.3        1 UNL1     0.1889
     2 C         -0.488087   -0.971101   0.149316 C.3        1 UNL1     0.1342
     3 C         -1.926892   -0.896081   -0.384237 C.3        1 UNL1     0.1174
     4 C         -2.841919   -1.961602   0.224458 C.3        1 UNL1     0.1456
     5 C         -2.694501   -2.062526   1.753656 C.3        1 UNL1     0.2326
     6 O         -1.336532   -2.332228   2.094318 O.3        1 UNL1     -0.3076
     7 O         -3.240911   -0.932644   2.458016 O.3        1 UNL1     -0.4605
     8 C         -3.769411   -1.195894   3.708981 C.ar        1 UNL1     0.1310
     9 C         -4.612396   -2.267238   4.023459 C.ar        1 UNL1     0.0226
     10 C         -5.083136   -2.459048   5.32788 C.ar        1 UNL1     0.1343
     11 C         -4.702719   -1.596915   6.355426 C.ar        1 UNL1     0.1007
     12 C         -3.894431   -0.499918   6.045503 C.ar        1 UNL1     0.1389
     13 C         -3.423379   -0.305765   4.733312 C.ar        1 UNL1     0.0229
     14 C         -5.102504   -1.800709   7.767089 C.2        1 UNL1     0.1740
     15 C         -4.42455   -0.912505   8.768599 C.3        1 UNL1     0.0520
     16 C         -4.318897   0.486761   8.177964 C.3        1 UNL1     0.1322
     17 O         -3.547802   0.470849   6.956396 O.3        1 UNL1     -0.4828
     18 C         -5.66173   1.213462   8.071073 C.ar        1 UNL1     -0.0067
     19 C         -5.684714   2.57681   7.711951 C.ar        1 UNL1     -0.0516
     20 C         -6.891787   3.283386   7.651239 C.ar        1 UNL1     -0.0198
     21 C         -8.07923   2.641318   7.953822 C.ar        1 UNL1     0.1169
     22 C         -8.092332   1.290977   8.278238 C.ar        1 UNL1     -0.0198
     23 C         -6.887309   0.57954   8.321062 C.ar        1 UNL1     -0.0516
     24 O         -9.230936   3.371307   7.920825 O.3        1 UNL1     -0.5068
     25 O         -5.874353   -2.684308   8.130388 O.2        1 UNL1     -0.2917
     26 O         -5.903139   -3.522731   5.568212 O.3        1 UNL1     -0.5058
     27 O         -0.237314   -0.302861   2.530196 O.3        1 UNL1     -0.3648
     28 O         0.218494   -1.931492   -0.657591 O.3        1 UNL1     -0.3841
     29 O         -2.450166   0.426622   -0.24723 O.3        1 UNL1     -0.3863
     30 O         -2.527117   -3.245155   -0.357847 O.3        1 UNL1     -0.3829
     31 H         0.576473   -1.940136   1.733285 H        1 UNL1     0.0937
     32 H         0.0   0.0   0.0 H        1 UNL1     0.0671
     33 H         -1.893683   -1.086099   -1.466138 H        1 UNL1     0.0649
     34 H         -3.886464   -1.744135   -0.024608 H        1 UNL1     0.0683
     35 H         -3.273014   -2.956955   2.016714 H        1 UNL1     0.1085
     36 H         -4.899171   -3.00409   3.281212 H        1 UNL1     0.0691
     37 H         -2.796302   0.556678   4.517767 H        1 UNL1     0.0691
     38 H         -3.43306   -1.333401   8.966898 H        1 UNL1     0.0385
     39 H         -4.994813   -0.925246   9.703702 H        1 UNL1     0.0385
     40 H         -3.718017   1.087448   8.874123 H        1 UNL1     0.0789
     41 H         -4.765257   3.105832   7.478744 H        1 UNL1     0.0623
     42 H         -6.895187   4.337383   7.384611 H        1 UNL1     0.0654
     43 H         -9.018112   0.774621   8.502333 H        1 UNL1     0.0654
     44 H         -6.935821   -0.476667   8.567877 H        1 UNL1     0.0623
     45 H         -9.187618   4.044271   8.619367 H        1 UNL1     0.2921
     46 H         -5.630997   -3.961953   6.389451 H        1 UNL1     0.2922
     47 H         0.507879   0.255148   2.267186 H        1 UNL1     0.2126
     48 H         1.170805   -1.779867   -0.503174 H        1 UNL1     0.2101
     49 H         -2.143718   0.980585   -0.982763 H        1 UNL1     0.2100
     50 H         -2.784754   -3.218959   -1.302648 H        1 UNL1     0.2102
@<TRIPOS>BOND
     1     1     2    1
     2     1     6    1
     3     2     3    1
     4     3     4    1
     5     3    29    1
     6     3    33    1
     7     4     5    1
     8     5     6    1
     9     5     7    1
    10     5    35    1
    11     7     8    1
    12     8     9   ar
    13     8    13   ar
    14     9    10   ar
    15     9    36    1
    16    10    11   ar
    17    10    26    1
    18    11    12   ar
    19    11    14    1
    20    12    13   ar
    21    12    17    1
    22    13    37    1
    23    14    15    1
    24    14    25    2
    25    15    16    1
    26    15    38    1
    27    15    39    1
    28    16    17    1
    29    16    18    1
    30    16    40    1
    31    18    19   ar
    32    18    23   ar
    33    19    20   ar
    34    19    41    1
    35    20    21   ar
    36    20    42    1
    37    21    22   ar
    38    21    24    1
    39    22    23   ar
    40    22    43    1
    41    23    44    1
    42    24    45    1
    43    26    46    1
    44    27    47    1
    45    28    48    1
    46    29    49    1
    47    30    50    1
    48     1    31    1
    49     1    27    1
    50     2    32    1
    51     2    28    1
    52     4    34    1
    53     4    30    1
