@<TRIPOS>MOLECULE
*****
 50 53 0 0 0
SMALL
GASTEIGER

@<TRIPOS>ATOM
     1 C         -0.330114   -1.3271   1.703125 C.3        1 UNL1     0.1889
     2 C         -0.461539   -0.975617   0.196763 C.3        1 UNL1     0.1342
     3 C         -1.902615   -0.964775   -0.335822 C.3        1 UNL1     0.1174
     4 C         -2.787728   -2.024206   0.325464 C.3        1 UNL1     0.1456
     5 C         -2.635425   -2.048056   1.857325 C.3        1 UNL1     0.2326
     6 O         -1.270192   -2.264661   2.206738 O.3        1 UNL1     -0.3076
     7 O         -3.211044   -0.90092   2.508527 O.3        1 UNL1     -0.4605
     8 C         -3.719835   -1.115642   3.776815 C.ar        1 UNL1     0.1310
     9 C         -4.534935   -2.189049   4.151927 C.ar        1 UNL1     0.0226
     10 C         -4.987017   -2.3286   5.46952 C.ar        1 UNL1     0.1343
     11 C         -4.615028   -1.410143   6.450286 C.ar        1 UNL1     0.1007
     12 C         -3.835144   -0.311667   6.078916 C.ar        1 UNL1     0.1389
     13 C         -3.382887   -0.170141   4.753448 C.ar        1 UNL1     0.0229
     14 C         -4.994741   -1.554969   7.874715 C.2        1 UNL1     0.1740
     15 C         -4.32618   -0.605164   8.824686 C.3        1 UNL1     0.0520
     16 C         -4.258589   0.766249   8.166951 C.3        1 UNL1     0.1322
     17 O         -3.500655   0.70895   6.938407 O.3        1 UNL1     -0.4828
     18 C         -5.61858   1.457227   8.041651 C.ar        1 UNL1     -0.0067
     19 C         -5.998973   2.018384   6.805278 C.ar        1 UNL1     -0.0516
     20 C         -7.214983   2.698597   6.668923 C.ar        1 UNL1     -0.0198
     21 C         -8.054136   2.830552   7.76082 C.ar        1 UNL1     0.1169
     22 C         -7.722527   2.259946   8.982819 C.ar        1 UNL1     -0.0198
     23 C         -6.515047   1.563769   9.114679 C.ar        1 UNL1     -0.0516
     24 O         -9.21261   3.532268   7.599785 O.3        1 UNL1     -0.5068
     25 O         -5.742438   -2.436988   8.288812 O.2        1 UNL1     -0.2917
     26 O         -5.780121   -3.397393   5.769937 O.3        1 UNL1     -0.5058
     27 O         -0.225397   -0.188044   2.542394 O.3        1 UNL1     -0.3648
     28 O         0.269479   -1.954111   -0.565384 O.3        1 UNL1     -0.3841
     29 O         -2.461124   0.348442   -0.260579 O.3        1 UNL1     -0.3863
     30 O         -2.439317   -3.325173   -0.195865 O.3        1 UNL1     -0.3829
     31 H         0.631033   -1.839053   1.822198 H        1 UNL1     0.0937
     32 H         0.0   0.0   0.0 H        1 UNL1     0.0671
     33 H         -1.865871   -1.205241   -1.407524 H        1 UNL1     0.0649
     34 H         -3.838112   -1.846977   0.069174 H        1 UNL1     0.0683
     35 H         -3.189256   -2.944115   2.164293 H        1 UNL1     0.1085
     36 H         -4.813041   -2.966691   3.44904 H        1 UNL1     0.0691
     37 H         -2.777833   0.694625   4.489662 H        1 UNL1     0.0691
     38 H         -3.323338   -0.994135   9.030932 H        1 UNL1     0.0385
     39 H         -4.885813   -0.585747   9.766075 H        1 UNL1     0.0385
     40 H         -3.663902   1.412638   8.826533 H        1 UNL1     0.0789
     41 H         -5.353666   1.936355   5.935507 H        1 UNL1     0.0623
     42 H         -7.491607   3.137203   5.713353 H        1 UNL1     0.0654
     43 H         -8.379246   2.344329   9.840438 H        1 UNL1     0.0654
     44 H         -6.292846   1.121642   10.081113 H        1 UNL1     0.0623
     45 H         -9.958537   2.940692   7.790437 H        1 UNL1     0.2921
     46 H         -5.374688   -3.909588   6.487358 H        1 UNL1     0.2922
     47 H         0.517099   0.365984   2.263804 H        1 UNL1     0.2126
     48 H         1.202287   -1.887982   -0.283908 H        1 UNL1     0.2101
     49 H         -2.022971   0.930631   -0.901572 H        1 UNL1     0.2100
     50 H         -2.672977   -3.341264   -1.147104 H        1 UNL1     0.2102
@<TRIPOS>BOND
     1     1     2    1
     2     1     6    1
     3     2     3    1
     4     3     4    1
     5     3    29    1
     6     3    33    1
     7     4     5    1
     8     5     6    1
     9     5     7    1
    10     5    35    1
    11     7     8    1
    12     8     9   ar
    13     8    13   ar
    14     9    10   ar
    15     9    36    1
    16    10    11   ar
    17    10    26    1
    18    11    12   ar
    19    11    14    1
    20    12    13   ar
    21    12    17    1
    22    13    37    1
    23    14    15    1
    24    14    25    2
    25    15    16    1
    26    15    38    1
    27    15    39    1
    28    16    17    1
    29    16    18    1
    30    16    40    1
    31    18    19   ar
    32    18    23   ar
    33    19    20   ar
    34    19    41    1
    35    20    21   ar
    36    20    42    1
    37    21    22   ar
    38    21    24    1
    39    22    23   ar
    40    22    43    1
    41    23    44    1
    42    24    45    1
    43    26    46    1
    44    27    47    1
    45    28    48    1
    46    29    49    1
    47    30    50    1
    48     1    31    1
    49     1    27    1
    50     2    32    1
    51     2    28    1
    52     4    34    1
    53     4    30    1
