@<TRIPOS>MOLECULE
*****
 50 53 0 0 0
SMALL
GASTEIGER

@<TRIPOS>ATOM
     1 C         -0.292885   -1.462643   1.595525 C.3        1 UNL1     0.1889
     2 C         -0.470304   -0.982598   0.129912 C.3        1 UNL1     0.1342
     3 C         -1.928477   -0.907352   -0.34814 C.3        1 UNL1     0.1174
     4 C         -2.807436   -2.007334   0.25235 C.3        1 UNL1     0.1456
     5 C         -2.602949   -2.163408   1.770305 C.3        1 UNL1     0.2326
     6 O         -1.23021   -2.427067   2.051268 O.3        1 UNL1     -0.3076
     7 O         -3.1371   -1.068269   2.536252 O.3        1 UNL1     -0.4605
     8 C         -3.616206   -1.385374   3.794596 C.ar        1 UNL1     0.1310
     9 C         -4.440242   -2.474746   4.09714 C.ar        1 UNL1     0.0226
     10 C         -4.86003   -2.722178   5.409564 C.ar        1 UNL1     0.1343
     11 C         -4.446088   -1.899069   6.45598 C.ar        1 UNL1     0.1007
     12 C         -3.656704   -0.784509   6.160323 C.ar        1 UNL1     0.1389
     13 C         -3.236912   -0.534423   4.840224 C.ar        1 UNL1     0.0229
     14 C         -4.790836   -2.162239   7.872329 C.2        1 UNL1     0.1740
     15 C         -4.080718   -1.309809   8.882598 C.3        1 UNL1     0.0520
     16 C         -4.005901   0.112746   8.345293 C.3        1 UNL1     0.1322
     17 O         -3.281597   0.151562   7.095915 O.3        1 UNL1     -0.4828
     18 C         -5.356142   0.833058   8.31841 C.ar        1 UNL1     -0.0067
     19 C         -5.585085   1.908429   9.201233 C.ar        1 UNL1     -0.0516
     20 C         -6.824675   2.558198   9.235573 C.ar        1 UNL1     -0.0198
     21 C         -7.843469   2.138241   8.3992 C.ar        1 UNL1     0.1169
     22 C         -7.637793   1.104017   7.495365 C.ar        1 UNL1     -0.0198
     23 C         -6.392439   0.466136   7.447862 C.ar        1 UNL1     -0.0516
     24 O         -9.048929   2.770289   8.487419 O.3        1 UNL1     -0.5068
     25 O         -5.543059   -3.065444   8.22851 O.2        1 UNL1     -0.2917
     26 O         -5.663958   -3.800751   5.637519 O.3        1 UNL1     -0.5058
     27 O         -0.140856   -0.400589   2.523811 O.3        1 UNL1     -0.3648
     28 O         0.218061   -1.902349   -0.737796 O.3        1 UNL1     -0.3841
     29 O         -2.462638   0.402012   -0.142294 O.3        1 UNL1     -0.3863
     30 O         -2.498363   -3.26376   -0.389177 O.3        1 UNL1     -0.3829
     31 H         0.663336   -1.995594   1.636556 H        1 UNL1     0.0937
     32 H         0.0   0.0   0.0 H        1 UNL1     0.0671
     33 H         -1.932527   -1.056262   -1.436961 H        1 UNL1     0.0649
     34 H         -3.862991   -1.795008   0.049565 H        1 UNL1     0.0683
     35 H         -3.160394   -3.07489   2.019973 H        1 UNL1     0.1085
     36 H         -4.750543   -3.183402   3.337114 H        1 UNL1     0.0691
     37 H         -2.623625   0.34064   4.636168 H        1 UNL1     0.0691
     38 H         -3.079924   -1.730864   9.026303 H        1 UNL1     0.0385
     39 H         -4.615029   -1.364272   9.837231 H        1 UNL1     0.0385
     40 H         -3.382659   0.689554   9.041987 H        1 UNL1     0.0789
     41 H         -4.804478   2.251046   9.874225 H        1 UNL1     0.0623
     42 H         -6.992677   3.37841   9.929143 H        1 UNL1     0.0654
     43 H         -8.423958   0.777011   6.825349 H        1 UNL1     0.0654
     44 H         -6.263527   -0.331066   6.722125 H        1 UNL1     0.0623
     45 H         -9.110736   3.415192   7.764234 H        1 UNL1     0.2921
     46 H         -5.414318   -4.218688   6.476817 H        1 UNL1     0.2922
     47 H         0.58862   0.175856   2.256535 H        1 UNL1     0.2126
     48 H         1.173444   -1.743594   -0.612211 H        1 UNL1     0.2101
     49 H         -2.981734   0.421548   0.677432 H        1 UNL1     0.2100
     50 H         -2.790691   -3.205739   -1.322392 H        1 UNL1     0.2102
@<TRIPOS>BOND
     1     1     2    1
     2     1     6    1
     3     2     3    1
     4     3     4    1
     5     3    29    1
     6     3    33    1
     7     4     5    1
     8     5     6    1
     9     5     7    1
    10     5    35    1
    11     7     8    1
    12     8     9   ar
    13     8    13   ar
    14     9    10   ar
    15     9    36    1
    16    10    11   ar
    17    10    26    1
    18    11    12   ar
    19    11    14    1
    20    12    13   ar
    21    12    17    1
    22    13    37    1
    23    14    15    1
    24    14    25    2
    25    15    16    1
    26    15    38    1
    27    15    39    1
    28    16    17    1
    29    16    18    1
    30    16    40    1
    31    18    19   ar
    32    18    23   ar
    33    19    20   ar
    34    19    41    1
    35    20    21   ar
    36    20    42    1
    37    21    22   ar
    38    21    24    1
    39    22    23   ar
    40    22    43    1
    41    23    44    1
    42    24    45    1
    43    26    46    1
    44    27    47    1
    45    28    48    1
    46    29    49    1
    47    30    50    1
    48     1    31    1
    49     1    27    1
    50     2    32    1
    51     2    28    1
    52     4    34    1
    53     4    30    1
