@<TRIPOS>MOLECULE
*****
 50 53 0 0 0
SMALL
GASTEIGER

@<TRIPOS>ATOM
     1 C         -0.338278   -1.33366   1.696385 C.3        1 UNL1     0.1889
     2 C         -0.46422   -0.975463   0.191137 C.3        1 UNL1     0.1342
     3 C         -1.903589   -0.959274   -0.345913 C.3        1 UNL1     0.1174
     4 C         -2.793018   -2.019633   0.308054 C.3        1 UNL1     0.1456
     5 C         -2.645584   -2.050354   1.840269 C.3        1 UNL1     0.2326
     6 O         -1.281919   -2.27136   2.193031 O.3        1 UNL1     -0.3076
     7 O         -3.220818   -0.904788   2.494566 O.3        1 UNL1     -0.4605
     8 C         -3.744649   -1.126424   3.755521 C.ar        1 UNL1     0.1310
     9 C         -4.570638   -2.197491   4.113094 C.ar        1 UNL1     0.0226
     10 C         -5.037813   -2.344728   5.424571 C.ar        1 UNL1     0.1343
     11 C         -4.670544   -1.436664   6.416727 C.ar        1 UNL1     0.1007
     12 C         -3.879649   -0.340331   6.062721 C.ar        1 UNL1     0.1389
     13 C         -3.4122   -0.191056   4.743389 C.ar        1 UNL1     0.0229
     14 C         -5.066545   -1.590511   7.835765 C.2        1 UNL1     0.1740
     15 C         -4.402193   -0.652784   8.800573 C.3        1 UNL1     0.0520
     16 C         -4.318686   0.723426   8.154794 C.3        1 UNL1     0.1322
     17 O         -3.547909   0.671112   6.934042 O.3        1 UNL1     -0.4828
     18 C         -5.672773   1.42424   8.020513 C.ar        1 UNL1     -0.0067
     19 C         -6.02864   2.013369   6.789863 C.ar        1 UNL1     -0.0516
     20 C         -7.238631   2.702875   6.646808 C.ar        1 UNL1     -0.0198
     21 C         -8.096085   2.816337   7.726496 C.ar        1 UNL1     0.1169
     22 C         -7.788792   2.218328   8.94173 C.ar        1 UNL1     -0.0198
     23 C         -6.587331   1.513003   9.079805 C.ar        1 UNL1     -0.0516
     24 O         -9.248011   3.52755   7.560225 O.3        1 UNL1     -0.5068
     25 O         -5.824326   -2.470955   8.234603 O.2        1 UNL1     -0.2917
     26 O         -5.840971   -3.410722   5.70773 O.3        1 UNL1     -0.5058
     27 O         -0.233789   -0.198427   2.540847 O.3        1 UNL1     -0.3648
     28 O         0.267117   -1.952246   -0.572896 O.3        1 UNL1     -0.3841
     29 O         -2.459549   0.354796   -0.266801 O.3        1 UNL1     -0.3863
     30 O         -2.445725   -3.3191   -0.217744 O.3        1 UNL1     -0.3829
     31 H         0.621404   -1.848165   1.816279 H        1 UNL1     0.0937
     32 H         0.0   0.0   0.0 H        1 UNL1     0.0671
     33 H         -1.863984   -1.195236   -1.418514 H        1 UNL1     0.0649
     34 H         -3.842213   -1.839072   0.049232 H        1 UNL1     0.0683
     35 H         -3.202274   -2.946534   2.14166 H        1 UNL1     0.1085
     36 H         -4.846128   -2.967604   3.400948 H        1 UNL1     0.0691
     37 H         -2.798785   0.671851   4.493173 H        1 UNL1     0.0691
     38 H         -3.404159   -1.049934   9.014412 H        1 UNL1     0.0385
     39 H         -4.971825   -0.637324   9.736018 H        1 UNL1     0.0385
     40 H         -3.727015   1.360579   8.825973 H        1 UNL1     0.0789
     41 H         -5.368634   1.946191   5.929904 H        1 UNL1     0.0623
     42 H         -7.496277   3.163005   5.696066 H        1 UNL1     0.0654
     43 H         -8.459983   2.288178   9.789394 H        1 UNL1     0.0654
     44 H         -6.384307   1.049418   10.040386 H        1 UNL1     0.0623
     45 H         -9.013728   4.446457   7.351808 H        1 UNL1     0.2921
     46 H         -5.44796   -3.929825   6.427096 H        1 UNL1     0.2922
     47 H         0.497829   0.365875   2.254213 H        1 UNL1     0.2126
     48 H         1.205826   -1.859449   -0.320021 H        1 UNL1     0.2101
     49 H         -2.024043   0.936651   -0.909898 H        1 UNL1     0.2100
     50 H         -2.68165   -3.332552   -1.168466 H        1 UNL1     0.2102
@<TRIPOS>BOND
     1     1     2    1
     2     1     6    1
     3     2     3    1
     4     3     4    1
     5     3    29    1
     6     3    33    1
     7     4     5    1
     8     5     6    1
     9     5     7    1
    10     5    35    1
    11     7     8    1
    12     8     9   ar
    13     8    13   ar
    14     9    10   ar
    15     9    36    1
    16    10    11   ar
    17    10    26    1
    18    11    12   ar
    19    11    14    1
    20    12    13   ar
    21    12    17    1
    22    13    37    1
    23    14    15    1
    24    14    25    2
    25    15    16    1
    26    15    38    1
    27    15    39    1
    28    16    17    1
    29    16    18    1
    30    16    40    1
    31    18    19   ar
    32    18    23   ar
    33    19    20   ar
    34    19    41    1
    35    20    21   ar
    36    20    42    1
    37    21    22   ar
    38    21    24    1
    39    22    23   ar
    40    22    43    1
    41    23    44    1
    42    24    45    1
    43    26    46    1
    44    27    47    1
    45    28    48    1
    46    29    49    1
    47    30    50    1
    48     1    31    1
    49     1    27    1
    50     2    32    1
    51     2    28    1
    52     4    34    1
    53     4    30    1
