@<TRIPOS>MOLECULE
*****
 50 53 0 0 0
SMALL
GASTEIGER

@<TRIPOS>ATOM
     1 C         -0.291321   -1.308035   1.724814 C.3        1 UNL1     0.1889
     2 C         -0.440646   -0.981519   0.214506 C.3        1 UNL1     0.1342
     3 C         -1.885489   -1.006991   -0.307265 C.3        1 UNL1     0.1174
     4 C         -2.744573   -2.073791   0.376131 C.3        1 UNL1     0.1456
     5 C         -2.58069   -2.071984   1.906981 C.3        1 UNL1     0.2326
     6 O         -1.208923   -2.256418   2.24919 O.3        1 UNL1     -0.3076
     7 O         -3.174207   -0.92693   2.545659 O.3        1 UNL1     -0.4605
     8 C         -3.669399   -1.132878   3.820766 C.ar        1 UNL1     0.1310
     9 C         -4.460291   -2.216499   4.217703 C.ar        1 UNL1     0.0226
     10 C         -4.899919   -2.345451   5.540578 C.ar        1 UNL1     0.1343
     11 C         -4.539106   -1.405435   6.504956 C.ar        1 UNL1     0.1007
     12 C         -3.783893   -0.297393   6.111661 C.ar        1 UNL1     0.1389
     13 C         -3.344185   -0.166579   4.780881 C.ar        1 UNL1     0.0229
     14 C         -4.9055   -1.536655   7.934183 C.2        1 UNL1     0.1740
     15 C         -4.249026   -0.559903   8.865068 C.3        1 UNL1     0.0520
     16 C         -4.213446   0.802704   8.18684 C.3        1 UNL1     0.1322
     17 O         -3.463479   0.742219   6.953568 O.3        1 UNL1     -0.4828
     18 C         -5.587755   1.464783   8.061731 C.ar        1 UNL1     -0.0067
     19 C         -5.98819   1.999987   6.82019 C.ar        1 UNL1     -0.0516
     20 C         -7.218417   2.653981   6.683097 C.ar        1 UNL1     -0.0198
     21 C         -8.05206   2.785477   7.779261 C.ar        1 UNL1     0.1169
     22 C         -7.700316   2.239652   9.006937 C.ar        1 UNL1     -0.0198
     23 C         -6.478333   1.569464   9.139834 C.ar        1 UNL1     -0.0516
     24 O         -9.22537   3.461739   7.61674 O.3        1 UNL1     -0.5068
     25 O         -5.632517   -2.427039   8.366788 O.2        1 UNL1     -0.2917
     26 O         -5.669454   -3.42513   5.862596 O.3        1 UNL1     -0.5058
     27 O         -0.203125   -0.154852   2.546506 O.3        1 UNL1     -0.3648
     28 O         0.304081   -1.956556   -0.538747 O.3        1 UNL1     -0.3841
     29 O         -2.469384   0.295918   -0.247028 O.3        1 UNL1     -0.3863
     30 O         -2.374217   -3.375193   -0.128723 O.3        1 UNL1     -0.3829
     31 H         0.680636   -1.799106   1.844093 H        1 UNL1     0.0937
     32 H         0.0   0.0   0.0 H        1 UNL1     0.0671
     33 H         -1.851776   -1.262501   -1.375581 H        1 UNL1     0.0649
     34 H         -3.800103   -1.921132   0.125226 H        1 UNL1     0.0683
     35 H         -3.114385   -2.974162   2.231211 H        1 UNL1     0.1085
     36 H         -4.728016   -3.009783   3.528396 H        1 UNL1     0.0691
     37 H         -2.758344   0.705964   4.499897 H        1 UNL1     0.0691
     38 H         -3.23719   -0.925917   9.069393 H        1 UNL1     0.0385
     39 H         -4.802073   -0.53762   9.810278 H        1 UNL1     0.0385
     40 H         -3.626921   1.470382   8.832374 H        1 UNL1     0.0789
     41 H         -5.347725   1.91786   5.946857 H        1 UNL1     0.0623
     42 H         -7.510632   3.07287   5.723329 H        1 UNL1     0.0654
     43 H         -8.352325   2.323728   9.868172 H        1 UNL1     0.0654
     44 H         -6.240379   1.146142   10.110927 H        1 UNL1     0.0623
     45 H         -9.020375   4.369194   7.338856 H        1 UNL1     0.2921
     46 H         -5.248731   -3.918564   6.584349 H        1 UNL1     0.2922
     47 H         0.526186   0.409541   2.254229 H        1 UNL1     0.2126
     48 H         1.237416   -1.867879   -0.265332 H        1 UNL1     0.2101
     49 H         -2.047542   0.8771   -0.899769 H        1 UNL1     0.2100
     50 H         -2.614423   -3.409952   -1.077831 H        1 UNL1     0.2102
@<TRIPOS>BOND
     1     1     2    1
     2     1     6    1
     3     2     3    1
     4     3     4    1
     5     3    29    1
     6     3    33    1
     7     4     5    1
     8     5     6    1
     9     5     7    1
    10     5    35    1
    11     7     8    1
    12     8     9   ar
    13     8    13   ar
    14     9    10   ar
    15     9    36    1
    16    10    11   ar
    17    10    26    1
    18    11    12   ar
    19    11    14    1
    20    12    13   ar
    21    12    17    1
    22    13    37    1
    23    14    15    1
    24    14    25    2
    25    15    16    1
    26    15    38    1
    27    15    39    1
    28    16    17    1
    29    16    18    1
    30    16    40    1
    31    18    19   ar
    32    18    23   ar
    33    19    20   ar
    34    19    41    1
    35    20    21   ar
    36    20    42    1
    37    21    22   ar
    38    21    24    1
    39    22    23   ar
    40    22    43    1
    41    23    44    1
    42    24    45    1
    43    26    46    1
    44    27    47    1
    45    28    48    1
    46    29    49    1
    47    30    50    1
    48     1    31    1
    49     1    27    1
    50     2    32    1
    51     2    28    1
    52     4    34    1
    53     4    30    1
