@<TRIPOS>MOLECULE
*****
 50 53 0 0 0
SMALL
GASTEIGER

@<TRIPOS>ATOM
     1 C         1.624928   -0.914564   1.137536 C.3        1 UNL1     0.1889
     2 C         0.122191   -0.763073   0.778685 C.3        1 UNL1     0.1342
     3 C         -0.789024   -0.417405   1.9664 C.3        1 UNL1     0.1174
     4 C         -0.333795   -1.070968   3.273587 C.3        1 UNL1     0.1456
     5 C         1.178469   -0.914467   3.516336 C.3        1 UNL1     0.2326
     6 O         1.906047   -1.459896   2.418153 O.3        1 UNL1     -0.3076
     7 O         1.570448   0.431441   3.842228 O.3        1 UNL1     -0.4605
     8 C         1.08578   1.422809   3.008074 C.ar        1 UNL1     0.1310
     9 C         0.372691   1.208324   1.823674 C.ar        1 UNL1     0.0226
     10 C         -0.092245   2.281578   1.054349 C.ar        1 UNL1     0.1343
     11 C         0.124261   3.596671   1.463613 C.ar        1 UNL1     0.1007
     12 C         0.870513   3.823801   2.623054 C.ar        1 UNL1     0.1389
     13 C         1.340173   2.744499   3.395036 C.ar        1 UNL1     0.0229
     14 C         -0.416658   4.766628   0.733709 C.2        1 UNL1     0.1740
     15 C         -0.279614   6.087672   1.432001 C.3        1 UNL1     0.0520
     16 C         1.089607   6.142158   2.095494 C.3        1 UNL1     0.1322
     17 O         1.234926   5.07629   3.059795 O.3        1 UNL1     -0.4828
     18 C         2.249969   6.263876   1.104803 C.ar        1 UNL1     -0.0067
     19 C         3.059141   7.418462   1.124456 C.ar        1 UNL1     -0.0516
     20 C         4.098731   7.582841   0.201311 C.ar        1 UNL1     -0.0198
     21 C         4.334084   6.605435   -0.749011 C.ar        1 UNL1     0.1169
     22 C         3.575768   5.442142   -0.772366 C.ar        1 UNL1     -0.0198
     23 C         2.547971   5.269166   0.16239 C.ar        1 UNL1     -0.0516
     24 O         5.330827   6.817485   -1.65562 O.3        1 UNL1     -0.5068
     25 O         -1.014195   4.679159   -0.335769 O.2        1 UNL1     -0.2917
     26 O         -0.780256   2.004499   -0.090838 O.3        1 UNL1     -0.5058
     27 O         2.386536   0.256135   0.888129 O.3        1 UNL1     -0.3648
     28 O         -0.343672   -2.009927   0.230021 O.3        1 UNL1     -0.3841
     29 O         -0.954924   0.99714   2.083333 O.3        1 UNL1     -0.3863
     30 O         -0.654614   -2.47858   3.236283 O.3        1 UNL1     -0.3829
     31 H         2.038208   -1.657413   0.446557 H        1 UNL1     0.0937
     32 H         -0.0   0.0   0.0 H        1 UNL1     0.0671
     33 H         -1.790988   -0.811466   1.746165 H        1 UNL1     0.0649
     34 H         -0.882226   -0.639486   4.118246 H        1 UNL1     0.0683
     35 H         1.375661   -1.559737   4.381565 H        1 UNL1     0.1085
     36 H         0.123542   0.210046   1.480912 H        1 UNL1     0.0691
     37 H         1.919711   2.94803   4.292925 H        1 UNL1     0.0691
     38 H         -1.081483   6.154271   2.175033 H        1 UNL1     0.0385
     39 H         -0.41957   6.894452   0.704473 H        1 UNL1     0.0385
     40 H         1.122177   7.061603   2.69556 H        1 UNL1     0.0789
     41 H         2.888859   8.204282   1.854621 H        1 UNL1     0.0623
     42 H         4.708082   8.483055   0.219112 H        1 UNL1     0.0654
     43 H         3.761229   4.663604   -1.502704 H        1 UNL1     0.0654
     44 H         1.982354   4.343276   0.12178 H        1 UNL1     0.0623
     45 H         5.587811   7.752943   -1.615696 H        1 UNL1     0.2921
     46 H         -1.020164   1.064465   -0.104707 H        1 UNL1     0.2922
     47 H         3.32839   0.076529   1.016632 H        1 UNL1     0.2126
     48 H         0.399237   -2.640202   0.29764 H        1 UNL1     0.2101
     49 H         -1.245413   1.366649   1.234291 H        1 UNL1     0.2100
     50 H         -1.61429   -2.564503   3.059217 H        1 UNL1     0.2102
@<TRIPOS>BOND
     1     1     2    1
     2     1     6    1
     3     2     3    1
     4     3     4    1
     5     3    29    1
     6     3    33    1
     7     4     5    1
     8     5     6    1
     9     5     7    1
    10     5    35    1
    11     7     8    1
    12     8     9   ar
    13     8    13   ar
    14     9    10   ar
    15     9    36    1
    16    10    11   ar
    17    10    26    1
    18    11    12   ar
    19    11    14    1
    20    12    13   ar
    21    12    17    1
    22    13    37    1
    23    14    15    1
    24    14    25    2
    25    15    16    1
    26    15    38    1
    27    15    39    1
    28    16    17    1
    29    16    18    1
    30    16    40    1
    31    18    19   ar
    32    18    23   ar
    33    19    20   ar
    34    19    41    1
    35    20    21   ar
    36    20    42    1
    37    21    22   ar
    38    21    24    1
    39    22    23   ar
    40    22    43    1
    41    23    44    1
    42    24    45    1
    43    26    46    1
    44    27    47    1
    45    28    48    1
    46    29    49    1
    47    30    50    1
    48     1    31    1
    49     1    27    1
    50     2    32    1
    51     2    28    1
    52     4    34    1
    53     4    30    1
