@<TRIPOS>MOLECULE
*****
 50 53 0 0 0
SMALL
GASTEIGER

@<TRIPOS>ATOM
     1 C         -1.459944   -1.313904   0.955523 C.3        1 UNL1     0.1889
     2 C         -0.877852   -0.591138   -0.288952 C.3        1 UNL1     0.1342
     3 C         -1.873137   0.317509   -1.026674 C.3        1 UNL1     0.1174
     4 C         -3.302938   -0.228731   -1.006503 C.3        1 UNL1     0.1456
     5 C         -3.733604   -0.703723   0.393238 C.3        1 UNL1     0.2326
     6 O         -2.825636   -1.693625   0.871313 O.3        1 UNL1     -0.3076
     7 O         -3.939325   0.372992   1.325807 O.3        1 UNL1     -0.4605
     8 C         -4.905691   0.161233   2.29267 C.ar        1 UNL1     0.1310
     9 C         -6.181863   -0.363452   2.061608 C.ar        1 UNL1     0.0226
     10 C         -7.086126   -0.556733   3.112728 C.ar        1 UNL1     0.1343
     11 C         -6.727206   -0.251936   4.425022 C.ar        1 UNL1     0.1007
     12 C         -5.470474   0.310938   4.662892 C.ar        1 UNL1     0.1389
     13 C         -4.562393   0.507648   3.605478 C.ar        1 UNL1     0.0229
     14 C         -7.612149   -0.514259   5.583562 C.2        1 UNL1     0.1740
     15 C         -6.983717   -0.335044   6.934304 C.3        1 UNL1     0.0520
     16 C         -6.093431   0.899266   6.891545 C.3        1 UNL1     0.1322
     17 O         -5.05456   0.74807   5.899095 O.3        1 UNL1     -0.4828
     18 C         -6.869149   2.215715   6.802398 C.ar        1 UNL1     -0.0067
     19 C         -6.485385   3.182582   5.850502 C.ar        1 UNL1     -0.0516
     20 C         -7.1431   4.416094   5.774213 C.ar        1 UNL1     -0.0198
     21 C         -8.178937   4.697077   6.647092 C.ar        1 UNL1     0.1169
     22 C         -8.601673   3.752301   7.573122 C.ar        1 UNL1     -0.0198
     23 C         -7.956221   2.511606   7.637334 C.ar        1 UNL1     -0.0516
     24 O         -8.770905   5.923354   6.56822 O.3        1 UNL1     -0.5068
     25 O         -8.762876   -0.929619   5.474989 O.2        1 UNL1     -0.2917
     26 O         -8.315476   -1.071189   2.820122 O.3        1 UNL1     -0.5058
     27 O         -1.174498   -0.653077   2.178067 O.3        1 UNL1     -0.3648
     28 O         -0.430531   -1.58726   -1.227222 O.3        1 UNL1     -0.3841
     29 O         -1.786818   1.660243   -0.545271 O.3        1 UNL1     -0.3863
     30 O         -3.398376   -1.34032   -1.923536 O.3        1 UNL1     -0.3829
     31 H         -0.932677   -2.270712   1.03668 H        1 UNL1     0.0937
     32 H         0.0   0.0   0.0 H        1 UNL1     0.0671
     33 H         -1.565979   0.365162   -2.080763 H        1 UNL1     0.0649
     34 H         -4.001355   0.538376   -1.358868 H        1 UNL1     0.0683
     35 H         -4.692147   -1.208108   0.218108 H        1 UNL1     0.1085
     36 H         -6.500823   -0.672365   1.072185 H        1 UNL1     0.0691
     37 H         -3.590584   0.948542   3.816882 H        1 UNL1     0.0691
     38 H         -6.399598   -1.236051   7.14999 H        1 UNL1     0.0385
     39 H         -7.773022   -0.250304   7.689019 H        1 UNL1     0.0385
     40 H         -5.555099   0.943386   7.847982 H        1 UNL1     0.0789
     41 H         -5.66936   2.989756   5.16016 H        1 UNL1     0.0623
     42 H         -6.83007   5.158023   5.043757 H        1 UNL1     0.0654
     43 H         -9.421611   3.956185   8.251387 H        1 UNL1     0.0654
     44 H         -8.319589   1.793224   8.36585 H        1 UNL1     0.0623
     45 H         -8.099369   6.600403   6.750869 H        1 UNL1     0.2921
     46 H         -8.461859   -1.87609   3.341771 H        1 UNL1     0.2922
     47 H         -0.220148   -0.529362   2.27691 H        1 UNL1     0.2126
     48 H         0.282698   -2.087227   -0.785554 H        1 UNL1     0.2101
     49 H         -0.945697   2.056874   -0.822745 H        1 UNL1     0.2100
     50 H         -3.264921   -0.995186   -2.830611 H        1 UNL1     0.2102
@<TRIPOS>BOND
     1     1     2    1
     2     1     6    1
     3     2     3    1
     4     3     4    1
     5     3    29    1
     6     3    33    1
     7     4     5    1
     8     5     6    1
     9     5     7    1
    10     5    35    1
    11     7     8    1
    12     8     9   ar
    13     8    13   ar
    14     9    10   ar
    15     9    36    1
    16    10    11   ar
    17    10    26    1
    18    11    12   ar
    19    11    14    1
    20    12    13   ar
    21    12    17    1
    22    13    37    1
    23    14    15    1
    24    14    25    2
    25    15    16    1
    26    15    38    1
    27    15    39    1
    28    16    17    1
    29    16    18    1
    30    16    40    1
    31    18    19   ar
    32    18    23   ar
    33    19    20   ar
    34    19    41    1
    35    20    21   ar
    36    20    42    1
    37    21    22   ar
    38    21    24    1
    39    22    23   ar
    40    22    43    1
    41    23    44    1
    42    24    45    1
    43    26    46    1
    44    27    47    1
    45    28    48    1
    46    29    49    1
    47    30    50    1
    48     1    31    1
    49     1    27    1
    50     2    32    1
    51     2    28    1
    52     4    34    1
    53     4    30    1
