@<TRIPOS>MOLECULE
*****
 50 53 0 0 0
SMALL
GASTEIGER

@<TRIPOS>ATOM
     1 C         1.187348   -1.377584   1.209658 C.3        1 UNL1     0.1889
     2 C         0.4043   -1.016612   -0.081263 C.3        1 UNL1     0.1342
     3 C         -0.737503   -1.983569   -0.430182 C.3        1 UNL1     0.1174
     4 C         -0.421473   -3.434213   -0.057522 C.3        1 UNL1     0.1456
     5 C         0.163132   -3.565317   1.36072 C.3        1 UNL1     0.2326
     6 O         1.3364   -2.763844   1.478842 O.3        1 UNL1     -0.3076
     7 O         -0.798629   -3.317555   2.40233 O.3        1 UNL1     -0.4605
     8 C         -0.89127   -2.009701   2.84331 C.ar        1 UNL1     0.1310
     9 C         -1.549315   -1.590816   4.004694 C.ar        1 UNL1     0.0226
     10 C         -1.572927   -0.241308   4.376411 C.ar        1 UNL1     0.1343
     11 C         -0.918133   0.719908   3.60755 C.ar        1 UNL1     0.1007
     12 C         -0.292475   0.319442   2.423927 C.ar        1 UNL1     0.1389
     13 C         -0.271127   -1.037173   2.048998 C.ar        1 UNL1     0.0229
     14 C         -0.839955   2.146748   3.997641 C.2        1 UNL1     0.1740
     15 C         0.087419   2.994294   3.177158 C.3        1 UNL1     0.0520
     16 C         -0.053237   2.587444   1.7168 C.3        1 UNL1     0.1322
     17 O         0.289095   1.195482   1.537024 O.3        1 UNL1     -0.4828
     18 C         -1.386699   2.999068   1.088176 C.ar        1 UNL1     -0.0067
     19 C         -2.28677   3.791372   1.830025 C.ar        1 UNL1     -0.0516
     20 C         -3.534429   4.145787   1.303054 C.ar        1 UNL1     -0.0198
     21 C         -3.895997   3.709026   0.041176 C.ar        1 UNL1     0.1169
     22 C         -3.017779   2.955596   -0.726884 C.ar        1 UNL1     -0.0198
     23 C         -1.762672   2.61652   -0.207469 C.ar        1 UNL1     -0.0516
     24 O         -5.134206   4.042249   -0.423798 O.3        1 UNL1     -0.5068
     25 O         -1.422163   2.613896   4.972983 O.2        1 UNL1     -0.2917
     26 O         -2.233084   0.10162   5.520167 O.3        1 UNL1     -0.5058
     27 O         0.747359   -0.665923   2.355405 O.3        1 UNL1     -0.3648
     28 O         1.323817   -1.02202   -1.189038 O.3        1 UNL1     -0.3841
     29 O         -1.974509   -1.527448   0.12109 O.3        1 UNL1     -0.3863
     30 O         0.529865   -3.969723   -1.002972 O.3        1 UNL1     -0.3829
     31 H         2.216442   -1.034165   1.057645 H        1 UNL1     0.0937
     32 H         -0.0   0.0   0.0 H        1 UNL1     0.0671
     33 H         -0.87689   -1.958551   -1.519983 H        1 UNL1     0.0649
     34 H         -1.327461   -4.045654   -0.133195 H        1 UNL1     0.0683
     35 H         0.485162   -4.612627   1.418317 H        1 UNL1     0.1085
     36 H         -2.029349   -2.296269   4.674041 H        1 UNL1     0.0691
     37 H         0.221757   -1.322939   1.122232 H        1 UNL1     0.0691
     38 H         1.10561   2.817803   3.540016 H        1 UNL1     0.0385
     39 H         -0.154743   4.050366   3.337928 H        1 UNL1     0.0385
     40 H         0.714813   3.134085   1.15306 H        1 UNL1     0.0789
     41 H         -2.030253   4.139122   2.826478 H        1 UNL1     0.0623
     42 H         -4.224512   4.747202   1.889652 H        1 UNL1     0.0654
     43 H         -3.284788   2.620963   -1.722191 H        1 UNL1     0.0654
     44 H         -1.097579   2.035718   -0.839264 H        1 UNL1     0.0623
     45 H         -5.760343   3.352339   -0.150497 H        1 UNL1     0.2921
     46 H         -2.661658   0.963798   5.400224 H        1 UNL1     0.2922
     47 H         1.504558   -0.299615   2.833242 H        1 UNL1     0.2126
     48 H         0.847921   -1.415499   -1.945628 H        1 UNL1     0.2101
     49 H         -1.805848   -0.996538   0.915748 H        1 UNL1     0.2100
     50 H         0.295022   -4.906124   -1.169449 H        1 UNL1     0.2102
@<TRIPOS>BOND
     1     1     2    1
     2     1     6    1
     3     2     3    1
     4     3     4    1
     5     3    29    1
     6     3    33    1
     7     4     5    1
     8     5     6    1
     9     5     7    1
    10     5    35    1
    11     7     8    1
    12     8     9   ar
    13     8    13   ar
    14     9    10   ar
    15     9    36    1
    16    10    11   ar
    17    10    26    1
    18    11    12   ar
    19    11    14    1
    20    12    13   ar
    21    12    17    1
    22    13    37    1
    23    14    15    1
    24    14    25    2
    25    15    16    1
    26    15    38    1
    27    15    39    1
    28    16    17    1
    29    16    18    1
    30    16    40    1
    31    18    19   ar
    32    18    23   ar
    33    19    20   ar
    34    19    41    1
    35    20    21   ar
    36    20    42    1
    37    21    22   ar
    38    21    24    1
    39    22    23   ar
    40    22    43    1
    41    23    44    1
    42    24    45    1
    43    26    46    1
    44    27    47    1
    45    28    48    1
    46    29    49    1
    47    30    50    1
    48     1    31    1
    49     1    27    1
    50     2    32    1
    51     2    28    1
    52     4    34    1
    53     4    30    1
