@<TRIPOS>MOLECULE
*****
 50 53 0 0 0
SMALL
GASTEIGER

@<TRIPOS>ATOM
     1 C         -0.33182   -1.328192   1.701942 C.3        1 UNL1     0.1889
     2 C         -0.462365   -0.975418   0.195804 C.3        1 UNL1     0.1342
     3 C         -1.903217   -0.963052   -0.337355 C.3        1 UNL1     0.1174
     4 C         -2.789408   -2.022327   0.322735 C.3        1 UNL1     0.1456
     5 C         -2.637745   -2.047505   1.854638 C.3        1 UNL1     0.2326
     6 O         -1.27282   -2.265432   2.204432 O.3        1 UNL1     -0.3076
     7 O         -3.21275   -0.900444   2.506513 O.3        1 UNL1     -0.4605
     8 C         -3.722644   -1.115884   3.774236 C.ar        1 UNL1     0.1310
     9 C         -4.539018   -2.188878   4.147756 C.ar        1 UNL1     0.0226
     10 C         -4.992168   -2.329247   5.464894 C.ar        1 UNL1     0.1343
     11 C         -4.620015   -1.412066   6.446791 C.ar        1 UNL1     0.1007
     12 C         -3.838836   -0.313973   6.077013 C.ar        1 UNL1     0.1389
     13 C         -3.385504   -0.171622   4.752001 C.ar        1 UNL1     0.0229
     14 C         -5.000876   -1.557879   7.870813 C.2        1 UNL1     0.1740
     15 C         -4.3321   -0.6096   8.822155 C.3        1 UNL1     0.0520
     16 C         -4.262754   0.762369   8.165764 C.3        1 UNL1     0.1322
     17 O         -3.504   0.705518   6.937704 O.3        1 UNL1     -0.4828
     18 C         -5.622005   1.454742   8.040149 C.ar        1 UNL1     -0.0067
     19 C         -6.000157   2.019161   6.804574 C.ar        1 UNL1     -0.0516
     20 C         -7.215421   2.700679   6.668088 C.ar        1 UNL1     -0.0198
     21 C         -8.056048   2.830701   7.759082 C.ar        1 UNL1     0.1169
     22 C         -7.726668   2.256907   8.980192 C.ar        1 UNL1     -0.0198
     23 C         -6.51994   1.559442   9.112131 C.ar        1 UNL1     -0.0516
     24 O         -9.213723   3.533735   7.598051 O.3        1 UNL1     -0.5068
     25 O         -5.749695   -2.439586   8.283546 O.2        1 UNL1     -0.2917
     26 O         -5.786488   -3.397579   5.763739 O.3        1 UNL1     -0.5058
     27 O         -0.226572   -0.18988   2.542153 O.3        1 UNL1     -0.3648
     28 O         0.268213   -1.953869   -0.56682 O.3        1 UNL1     -0.3841
     29 O         -2.460751   0.350532   -0.2613 O.3        1 UNL1     -0.3863
     30 O         -2.441782   -3.323149   -0.199482 O.3        1 UNL1     -0.3829
     31 H         0.628886   -1.840976   1.820999 H        1 UNL1     0.0937
     32 H         0.0   0.0   0.0 H        1 UNL1     0.0671
     33 H         -1.866222   -1.202699   -1.409232 H        1 UNL1     0.0649
     34 H         -3.839552   -1.844092   0.066159 H        1 UNL1     0.0683
     35 H         -3.192386   -2.943382   2.160673 H        1 UNL1     0.1085
     36 H         -4.817354   -2.965595   3.443937 H        1 UNL1     0.0691
     37 H         -2.779451   0.692823   4.489461 H        1 UNL1     0.0691
     38 H         -3.329771   -0.999707   9.028746 H        1 UNL1     0.0385
     39 H         -4.892384   -0.590545   9.763164 H        1 UNL1     0.0385
     40 H         -3.667929   1.407577   8.826378 H        1 UNL1     0.0789
     41 H         -5.353657   1.938691   5.935544 H        1 UNL1     0.0623
     42 H         -7.490308   3.141792   5.71317 H        1 UNL1     0.0654
     43 H         -8.384561   2.339769   9.837059 H        1 UNL1     0.0654
     44 H         -6.299494   1.114826   10.077826 H        1 UNL1     0.0623
     45 H         -8.987622   4.441666   7.338711 H        1 UNL1     0.2921
     46 H         -5.382693   -3.910103   6.481848 H        1 UNL1     0.2922
     47 H         0.516356   0.363887   2.264196 H        1 UNL1     0.2126
     48 H         1.201137   -1.887944   -0.285682 H        1 UNL1     0.2101
     49 H         -2.021952   0.93287   -0.901716 H        1 UNL1     0.2100
     50 H         -2.675068   -3.338309   -1.150828 H        1 UNL1     0.2102
@<TRIPOS>BOND
     1     1     2    1
     2     1     6    1
     3     2     3    1
     4     3     4    1
     5     3    29    1
     6     3    33    1
     7     4     5    1
     8     5     6    1
     9     5     7    1
    10     5    35    1
    11     7     8    1
    12     8     9   ar
    13     8    13   ar
    14     9    10   ar
    15     9    36    1
    16    10    11   ar
    17    10    26    1
    18    11    12   ar
    19    11    14    1
    20    12    13   ar
    21    12    17    1
    22    13    37    1
    23    14    15    1
    24    14    25    2
    25    15    16    1
    26    15    38    1
    27    15    39    1
    28    16    17    1
    29    16    18    1
    30    16    40    1
    31    18    19   ar
    32    18    23   ar
    33    19    20   ar
    34    19    41    1
    35    20    21   ar
    36    20    42    1
    37    21    22   ar
    38    21    24    1
    39    22    23   ar
    40    22    43    1
    41    23    44    1
    42    24    45    1
    43    26    46    1
    44    27    47    1
    45    28    48    1
    46    29    49    1
    47    30    50    1
    48     1    31    1
    49     1    27    1
    50     2    32    1
    51     2    28    1
    52     4    34    1
    53     4    30    1
