@<TRIPOS>MOLECULE
*****
 50 53 0 0 0
SMALL
GASTEIGER

@<TRIPOS>ATOM
     1 C         -0.36687   -1.367717   1.662998 C.3        1 UNL1     0.1889
     2 C         -0.447278   -0.988945   0.159666 C.3        1 UNL1     0.1342
     3 C         -1.866428   -0.998005   -0.428887 C.3        1 UNL1     0.1174
     4 C         -2.753088   -2.08904   0.176583 C.3        1 UNL1     0.1456
     5 C         -2.660021   -2.140388   1.712508 C.3        1 UNL1     0.2326
     6 O         -1.304985   -2.334937   2.111127 O.3        1 UNL1     -0.3076
     7 O         -3.285633   -1.019026   2.362492 O.3        1 UNL1     -0.4605
     8 C         -3.83896   -1.270017   3.605215 C.ar        1 UNL1     0.1310
     9 C         -4.644521   -2.367707   3.926848 C.ar        1 UNL1     0.0226
     10 C         -5.14477   -2.543364   5.222533 C.ar        1 UNL1     0.1343
     11 C         -4.831662   -1.637308   6.23489 C.ar        1 UNL1     0.1007
     12 C         -4.061975   -0.515376   5.916086 C.ar        1 UNL1     0.1389
     13 C         -3.561286   -0.337583   4.612579 C.ar        1 UNL1     0.0229
     14 C         -5.263688   -1.818875   7.640073 C.2        1 UNL1     0.1740
     15 C         -4.653783   -0.874621   8.634029 C.3        1 UNL1     0.0520
     16 C         -4.5904   0.510934   8.006194 C.3        1 UNL1     0.1322
     17 O         -3.783802   0.49446   6.807779 O.3        1 UNL1     -0.4828
     18 C         -5.959187   1.175532   7.8405 C.ar        1 UNL1     -0.0067
     19 C         -6.301823   1.75602   6.602013 C.ar        1 UNL1     -0.0516
     20 C         -7.526099   2.41316   6.430908 C.ar        1 UNL1     -0.0198
     21 C         -8.411231   2.502813   7.49031 C.ar        1 UNL1     0.1169
     22 C         -8.116541   1.912167   8.712248 C.ar        1 UNL1     -0.0198
     23 C         -6.900252   1.23899   8.878172 C.ar        1 UNL1     -0.0516
     24 O         -9.577514   3.183219   7.297355 O.3        1 UNL1     -0.5068
     25 O         -6.00762   -2.72463   8.007034 O.2        1 UNL1     -0.2917
     26 O         -5.925528   -3.634469   5.470505 O.3        1 UNL1     -0.5058
     27 O         -0.319966   -0.243766   2.527476 O.3        1 UNL1     -0.3648
     28 O         0.334186   -1.936212   -0.591803 O.3        1 UNL1     -0.3841
     29 O         -2.456188   0.301288   -0.350445 O.3        1 UNL1     -0.3863
     30 O         -2.356128   -3.371595   -0.355547 O.3        1 UNL1     -0.3829
     31 H         0.599943   -1.861442   1.809924 H        1 UNL1     0.0937
     32 H         0.0   0.0   0.0 H        1 UNL1     0.0671
     33 H         -1.78273   -1.216083   -1.502739 H        1 UNL1     0.0649
     34 H         -3.796347   -1.929037   -0.117374 H        1 UNL1     0.0683
     35 H         -3.205537   -3.053979   1.980172 H        1 UNL1     0.1085
     36 H         -4.877811   -3.136654   3.19855 H        1 UNL1     0.0691
     37 H         -2.965371   0.544883   4.389793 H        1 UNL1     0.0691
     38 H         -3.65155   -1.246494   8.872287 H        1 UNL1     0.0385
     39 H         -5.250192   -0.886031   9.552694 H        1 UNL1     0.0385
     40 H         -4.036285   1.156221   8.701235 H        1 UNL1     0.0789
     41 H         -5.620377   1.707186   5.757681 H        1 UNL1     0.0623
     42 H         -7.773667   2.867073   5.474516 H        1 UNL1     0.0654
     43 H         -8.808951   1.963384   9.544027 H        1 UNL1     0.0654
     44 H         -6.707409   0.78016   9.843124 H        1 UNL1     0.0623
     45 H         -9.362427   4.102991   7.072689 H        1 UNL1     0.2921
     46 H         -5.538899   -4.150985   6.195171 H        1 UNL1     0.2922
     47 H         0.41785   0.333571   2.286294 H        1 UNL1     0.2126
     48 H         1.256796   -1.843239   -0.285403 H        1 UNL1     0.2101
     49 H         -2.008316   0.904624   -0.964602 H        1 UNL1     0.2100
     50 H         -2.557405   -3.375617   -1.314288 H        1 UNL1     0.2102
@<TRIPOS>BOND
     1     1     2    1
     2     1     6    1
     3     2     3    1
     4     3     4    1
     5     3    29    1
     6     3    33    1
     7     4     5    1
     8     5     6    1
     9     5     7    1
    10     5    35    1
    11     7     8    1
    12     8     9   ar
    13     8    13   ar
    14     9    10   ar
    15     9    36    1
    16    10    11   ar
    17    10    26    1
    18    11    12   ar
    19    11    14    1
    20    12    13   ar
    21    12    17    1
    22    13    37    1
    23    14    15    1
    24    14    25    2
    25    15    16    1
    26    15    38    1
    27    15    39    1
    28    16    17    1
    29    16    18    1
    30    16    40    1
    31    18    19   ar
    32    18    23   ar
    33    19    20   ar
    34    19    41    1
    35    20    21   ar
    36    20    42    1
    37    21    22   ar
    38    21    24    1
    39    22    23   ar
    40    22    43    1
    41    23    44    1
    42    24    45    1
    43    26    46    1
    44    27    47    1
    45    28    48    1
    46    29    49    1
    47    30    50    1
    48     1    31    1
    49     1    27    1
    50     2    32    1
    51     2    28    1
    52     4    34    1
    53     4    30    1
