@<TRIPOS>MOLECULE
*****
 50 53 0 0 0
SMALL
GASTEIGER

@<TRIPOS>ATOM
     1 C         -0.375608   -1.39375   1.639263 C.3        1 UNL1     0.1889
     2 C         -0.488912   -0.970587   0.149956 C.3        1 UNL1     0.1342
     3 C         -1.926121   -0.896135   -0.38796 C.3        1 UNL1     0.1174
     4 C         -2.843351   -1.959993   0.220325 C.3        1 UNL1     0.1456
     5 C         -2.700445   -2.057717   1.750159 C.3        1 UNL1     0.2326
     6 O         -1.343587   -2.327231   2.095363 O.3        1 UNL1     -0.3076
     7 O         -3.248457   -0.92612   2.450509 O.3        1 UNL1     -0.4605
     8 C         -3.780718   -1.186494   3.700482 C.ar        1 UNL1     0.1310
     9 C         -4.625746   -2.25634   4.01458 C.ar        1 UNL1     0.0226
     10 C         -5.100317   -2.445239   5.318038 C.ar        1 UNL1     0.1343
     11 C         -4.721812   -1.581633   6.345053 C.ar        1 UNL1     0.1007
     12 C         -3.911465   -0.48609   6.035366 C.ar        1 UNL1     0.1389
     13 C         -3.436558   -0.294862   4.724135 C.ar        1 UNL1     0.0229
     14 C         -5.125739   -1.782397   7.755972 C.2        1 UNL1     0.1740
     15 C         -4.449597   -0.893094   8.757731 C.3        1 UNL1     0.0520
     16 C         -4.340771   0.504968   8.164826 C.3        1 UNL1     0.1322
     17 O         -3.566305   0.485971   6.945436 O.3        1 UNL1     -0.4828
     18 C         -5.682506   1.232935   8.052869 C.ar        1 UNL1     -0.0067
     19 C         -5.70278   2.596608   7.694819 C.ar        1 UNL1     -0.0516
     20 C         -6.90897   3.304291   7.6296 C.ar        1 UNL1     -0.0198
     21 C         -8.098242   2.663005   7.9266 C.ar        1 UNL1     0.1169
     22 C         -8.113896   1.3124   8.249803 C.ar        1 UNL1     -0.0198
     23 C         -6.909685   0.599873   8.297121 C.ar        1 UNL1     -0.0516
     24 O         -9.249162   3.394029   7.88935 O.3        1 UNL1     -0.5068
     25 O         -5.899561   -2.664486   8.118744 O.2        1 UNL1     -0.2917
     26 O         -5.922148   -3.507584   5.558041 O.3        1 UNL1     -0.5058
     27 O         -0.244831   -0.297374   2.53013 O.3        1 UNL1     -0.3648
     28 O         0.219638   -1.932975   -0.652834 O.3        1 UNL1     -0.3841
     29 O         -2.449262   0.427065   -0.255301 O.3        1 UNL1     -0.3863
     30 O         -2.527365   -3.24491   -0.358323 O.3        1 UNL1     -0.3829
     31 H         0.570624   -1.936666   1.739091 H        1 UNL1     0.0937
     32 H         0.0   0.0   0.0 H        1 UNL1     0.0671
     33 H         -1.889825   -1.088471   -1.469353 H        1 UNL1     0.0649
     34 H         -3.887077   -1.742644   -0.032258 H        1 UNL1     0.0683
     35 H         -3.280084   -2.951354   2.013428 H        1 UNL1     0.1085
     36 H         -4.911265   -2.994241   3.272892 H        1 UNL1     0.0691
     37 H         -2.80794   0.566499   4.508752 H        1 UNL1     0.0691
     38 H         -3.459123   -1.314704   8.959556 H        1 UNL1     0.0385
     39 H         -5.022469   -0.903494   9.691266 H        1 UNL1     0.0385
     40 H         -3.74117   1.106279   8.861549 H        1 UNL1     0.0789
     41 H         -4.781883   3.125024   7.465962 H        1 UNL1     0.0623
     42 H         -6.910321   4.358518   7.363862 H        1 UNL1     0.0654
     43 H         -9.041067   0.796664   8.469532 H        1 UNL1     0.0654
     44 H         -6.960163   -0.456501   8.542825 H        1 UNL1     0.0623
     45 H         -9.208217   4.066359   8.588645 H        1 UNL1     0.2921
     46 H         -5.551742   -4.047944   6.273738 H        1 UNL1     0.2922
     47 H         0.501351   0.259778   2.268113 H        1 UNL1     0.2126
     48 H         1.171555   -1.781398   -0.495957 H        1 UNL1     0.2101
     49 H         -2.131484   0.982272   -0.985066 H        1 UNL1     0.2100
     50 H         -2.782229   -3.220624   -1.303927 H        1 UNL1     0.2102
@<TRIPOS>BOND
     1     1     2    1
     2     1     6    1
     3     2     3    1
     4     3     4    1
     5     3    29    1
     6     3    33    1
     7     4     5    1
     8     5     6    1
     9     5     7    1
    10     5    35    1
    11     7     8    1
    12     8     9   ar
    13     8    13   ar
    14     9    10   ar
    15     9    36    1
    16    10    11   ar
    17    10    26    1
    18    11    12   ar
    19    11    14    1
    20    12    13   ar
    21    12    17    1
    22    13    37    1
    23    14    15    1
    24    14    25    2
    25    15    16    1
    26    15    38    1
    27    15    39    1
    28    16    17    1
    29    16    18    1
    30    16    40    1
    31    18    19   ar
    32    18    23   ar
    33    19    20   ar
    34    19    41    1
    35    20    21   ar
    36    20    42    1
    37    21    22   ar
    38    21    24    1
    39    22    23   ar
    40    22    43    1
    41    23    44    1
    42    24    45    1
    43    26    46    1
    44    27    47    1
    45    28    48    1
    46    29    49    1
    47    30    50    1
    48     1    31    1
    49     1    27    1
    50     2    32    1
    51     2    28    1
    52     4    34    1
    53     4    30    1
