@<TRIPOS>MOLECULE
*****
 50 53 0 0 0
SMALL
GASTEIGER

@<TRIPOS>ATOM
     1 C         0.638403   -1.72502   1.177943 C.3        1 UNL1     0.1889
     2 C         -0.461866   -0.799499   0.592488 C.3        1 UNL1     0.1342
     3 C         -1.395716   -0.172195   1.638853 C.3        1 UNL1     0.1174
     4 C         -1.670317   -1.102556   2.822973 C.3        1 UNL1     0.1456
     5 C         -0.388101   -1.756385   3.369592 C.3        1 UNL1     0.2326
     6 O         0.274088   -2.472045   2.329301 O.3        1 UNL1     -0.3076
     7 O         0.475067   -0.835388   4.060986 O.3        1 UNL1     -0.4605
     8 C         1.770513   -1.267593   4.281319 C.ar        1 UNL1     0.1310
     9 C         2.456012   -1.186167   5.498184 C.ar        1 UNL1     0.0226
     10 C         3.764003   -1.668658   5.625719 C.ar        1 UNL1     0.1343
     11 C         4.410298   -2.266471   4.544626 C.ar        1 UNL1     0.1007
     12 C         3.75106   -2.316443   3.313491 C.ar        1 UNL1     0.1389
     13 C         2.436861   -1.828841   3.184824 C.ar        1 UNL1     0.0229
     14 C         5.760014   -2.868296   4.645753 C.2        1 UNL1     0.1740
     15 C         6.208106   -3.661733   3.453603 C.3        1 UNL1     0.0520
     16 C         5.769403   -2.927864   2.193868 C.3        1 UNL1     0.1322
     17 O         4.332291   -2.784711   2.157999 O.3        1 UNL1     -0.4828
     18 C         6.542591   -1.632636   1.934465 C.ar        1 UNL1     -0.0067
     19 C         7.299078   -1.502727   0.751644 C.ar        1 UNL1     -0.0516
     20 C         8.055609   -0.35071   0.505715 C.ar        1 UNL1     -0.0198
     21 C         8.069778   0.673037   1.436074 C.ar        1 UNL1     0.1169
     22 C         7.308668   0.588616   2.594704 C.ar        1 UNL1     -0.0198
     23 C         6.537485   -0.555454   2.832266 C.ar        1 UNL1     -0.0516
     24 O         8.848124   1.763412   1.17983 O.3        1 UNL1     -0.5068
     25 O         6.454181   -2.805662   5.657036 O.2        1 UNL1     -0.2917
     26 O         4.377209   -1.558096   6.839531 O.3        1 UNL1     -0.5058
     27 O         1.889769   -1.078399   1.347502 O.3        1 UNL1     -0.3648
     28 O         -1.280808   -1.574371   -0.302841 O.3        1 UNL1     -0.3841
     29 O         -0.914603   1.111182   2.043335 O.3        1 UNL1     -0.3863
     30 O         -2.580745   -2.143387   2.406461 O.3        1 UNL1     -0.3829
     31 H         0.832971   -2.495444   0.423842 H        1 UNL1     0.0937
     32 H         0.0   0.0   0.0 H        1 UNL1     0.0671
     33 H         -2.363092   0.018531   1.153542 H        1 UNL1     0.0649
     34 H         -2.164673   -0.547484   3.627901 H        1 UNL1     0.0683
     35 H         -0.755923   -2.502024   4.085559 H        1 UNL1     0.1085
     36 H         1.988662   -0.783402   6.390084 H        1 UNL1     0.0691
     37 H         1.945988   -1.878451   2.215249 H        1 UNL1     0.0691
     38 H         5.739976   -4.649754   3.518381 H        1 UNL1     0.0385
     39 H         7.294467   -3.794359   3.498424 H        1 UNL1     0.0385
     40 H         6.001647   -3.580604   1.341511 H        1 UNL1     0.0789
     41 H         7.311819   -2.296067   0.009957 H        1 UNL1     0.0623
     42 H         8.644198   -0.267496   -0.404588 H        1 UNL1     0.0654
     43 H         7.300648   1.39085   3.322897 H        1 UNL1     0.0654
     44 H         5.946711   -0.583104   3.742797 H        1 UNL1     0.0623
     45 H         9.756824   1.460895   1.020253 H        1 UNL1     0.2921
     46 H         5.039411   -0.849826   6.804132 H        1 UNL1     0.2922
     47 H         2.136343   -0.608825   0.538452 H        1 UNL1     0.2126
     48 H         -0.719519   -2.299805   -0.638149 H        1 UNL1     0.2101
     49 H         0.05145   1.143744   1.956876 H        1 UNL1     0.2100
     50 H         -2.16939   -2.621614   1.656929 H        1 UNL1     0.2102
@<TRIPOS>BOND
     1     1     2    1
     2     1     6    1
     3     2     3    1
     4     3     4    1
     5     3    29    1
     6     3    33    1
     7     4     5    1
     8     5     6    1
     9     5     7    1
    10     5    35    1
    11     7     8    1
    12     8     9   ar
    13     8    13   ar
    14     9    10   ar
    15     9    36    1
    16    10    11   ar
    17    10    26    1
    18    11    12   ar
    19    11    14    1
    20    12    13   ar
    21    12    17    1
    22    13    37    1
    23    14    15    1
    24    14    25    2
    25    15    16    1
    26    15    38    1
    27    15    39    1
    28    16    17    1
    29    16    18    1
    30    16    40    1
    31    18    19   ar
    32    18    23   ar
    33    19    20   ar
    34    19    41    1
    35    20    21   ar
    36    20    42    1
    37    21    22   ar
    38    21    24    1
    39    22    23   ar
    40    22    43    1
    41    23    44    1
    42    24    45    1
    43    26    46    1
    44    27    47    1
    45    28    48    1
    46    29    49    1
    47    30    50    1
    48     1    31    1
    49     1    27    1
    50     2    32    1
    51     2    28    1
    52     4    34    1
    53     4    30    1
