@<TRIPOS>MOLECULE
*****
 50 53 0 0 0
SMALL
GASTEIGER

@<TRIPOS>ATOM
     1 C         -0.424078   -1.368929   1.648331 C.3        1 UNL1     0.1889
     2 C         -0.509362   -0.95948   0.153333 C.3        1 UNL1     0.1342
     3 C         -1.937569   -0.86343   -0.404754 C.3        1 UNL1     0.1174
     4 C         -2.883039   -1.903168   0.201999 C.3        1 UNL1     0.1456
     5 C         -2.762473   -1.987389   1.734558 C.3        1 UNL1     0.2326
     6 O         -1.415753   -2.278967   2.100887 O.3        1 UNL1     -0.3076
     7 O         -3.298027   -0.838231   2.415689 O.3        1 UNL1     -0.4605
     8 C         -3.848424   -1.074576   3.662578 C.ar        1 UNL1     0.1310
     9 C         -4.723797   -2.119615   3.977087 C.ar        1 UNL1     0.0226
     10 C         -5.215167   -2.285569   5.27744 C.ar        1 UNL1     0.1343
     11 C         -4.82392   -1.42372   6.30115 C.ar        1 UNL1     0.1007
     12 C         -3.982589   -0.352059   5.99052 C.ar        1 UNL1     0.1389
     13 C         -3.490749   -0.18385   4.68238 C.ar        1 UNL1     0.0229
     14 C         -5.245977   -1.602486   7.709718 C.2        1 UNL1     0.1740
     15 C         -4.556304   -0.722854   8.710791 C.3        1 UNL1     0.0520
     16 C         -4.405756   0.667058   8.107931 C.3        1 UNL1     0.1322
     17 O         -3.620776   0.618118   6.896122 O.3        1 UNL1     -0.4828
     18 C         -5.727059   1.428554   7.977527 C.ar        1 UNL1     -0.0067
     19 C         -6.047198   2.055871   6.755971 C.ar        1 UNL1     -0.0516
     20 C         -7.224966   2.799968   6.617607 C.ar        1 UNL1     -0.0198
     21 C         -8.08529   2.930114   7.693122 C.ar        1 UNL1     0.1169
     22 C         -7.813938   2.296333   8.898746 C.ar        1 UNL1     -0.0198
     23 C         -6.645339   1.5369   9.031765 C.ar        1 UNL1     -0.0516
     24 O         -9.203921   3.693807   7.532382 O.3        1 UNL1     -0.5068
     25 O         -6.045751   -2.461284   8.07209 O.2        1 UNL1     -0.2917
     26 O         -6.066471   -3.324312   5.518019 O.3        1 UNL1     -0.5058
     27 O         -0.284246   -0.265866   2.529516 O.3        1 UNL1     -0.3648
     28 O         0.191294   -1.943603   -0.629795 O.3        1 UNL1     -0.3841
     29 O         -2.43701   0.470802   -0.292874 O.3        1 UNL1     -0.3863
     30 O         -2.584008   -3.19991   -0.359008 O.3        1 UNL1     -0.3829
     31 H         0.51017   -1.92864   1.766578 H        1 UNL1     0.0937
     32 H         0.0   0.0   0.0 H        1 UNL1     0.0671
     33 H         -1.890524   -1.067859   -1.483511 H        1 UNL1     0.0649
     34 H         -3.918946   -1.668711   -0.066939 H        1 UNL1     0.0683
     35 H         -3.362576   -2.867013   1.999163 H        1 UNL1     0.1085
     36 H         -5.021477   -2.855892   3.238572 H        1 UNL1     0.0691
     37 H         -2.838029   0.659182   4.466174 H        1 UNL1     0.0691
     38 H         -3.579014   -1.168289   8.925311 H        1 UNL1     0.0385
     39 H         -5.137879   -0.71084   9.638909 H        1 UNL1     0.0385
     40 H         -3.797239   1.258303   8.805538 H        1 UNL1     0.0789
     41 H         -5.383879   1.976377   5.89962 H        1 UNL1     0.0623
     42 H         -7.45481   3.288843   5.674112 H        1 UNL1     0.0654
     43 H         -8.488219   2.379216   9.742776 H        1 UNL1     0.0654
     44 H         -6.470291   1.046765   9.984639 H        1 UNL1     0.0623
     45 H         -8.928349   4.605441   7.343435 H        1 UNL1     0.2921
     46 H         -5.70586   -3.880734   6.226373 H        1 UNL1     0.2922
     47 H         0.482417   0.268075   2.27853 H        1 UNL1     0.2126
     48 H         1.124651   -1.915857   -0.343774 H        1 UNL1     0.2101
     49 H         -1.965989   1.052384   -0.910689 H        1 UNL1     0.2100
     50 H         -2.804521   -3.173758   -1.313158 H        1 UNL1     0.2102
@<TRIPOS>BOND
     1     1     2    1
     2     1     6    1
     3     2     3    1
     4     3     4    1
     5     3    29    1
     6     3    33    1
     7     4     5    1
     8     5     6    1
     9     5     7    1
    10     5    35    1
    11     7     8    1
    12     8     9   ar
    13     8    13   ar
    14     9    10   ar
    15     9    36    1
    16    10    11   ar
    17    10    26    1
    18    11    12   ar
    19    11    14    1
    20    12    13   ar
    21    12    17    1
    22    13    37    1
    23    14    15    1
    24    14    25    2
    25    15    16    1
    26    15    38    1
    27    15    39    1
    28    16    17    1
    29    16    18    1
    30    16    40    1
    31    18    19   ar
    32    18    23   ar
    33    19    20   ar
    34    19    41    1
    35    20    21   ar
    36    20    42    1
    37    21    22   ar
    38    21    24    1
    39    22    23   ar
    40    22    43    1
    41    23    44    1
    42    24    45    1
    43    26    46    1
    44    27    47    1
    45    28    48    1
    46    29    49    1
    47    30    50    1
    48     1    31    1
    49     1    27    1
    50     2    32    1
    51     2    28    1
    52     4    34    1
    53     4    30    1
