@<TRIPOS>MOLECULE
*****
 50 53 0 0 0
SMALL
GASTEIGER

@<TRIPOS>ATOM
     1 C         -0.340971   -1.333841   1.695703 C.3        1 UNL1     0.1889
     2 C         -0.467236   -0.974077   0.190856 C.3        1 UNL1     0.1342
     3 C         -1.907079   -0.952742   -0.344741 C.3        1 UNL1     0.1174
     4 C         -2.799339   -2.010671   0.309305 C.3        1 UNL1     0.1456
     5 C         -2.650478   -2.043053   1.841347 C.3        1 UNL1     0.2326
     6 O         -1.287195   -2.268813   2.192576 O.3        1 UNL1     -0.3076
     7 O         -3.221286   -0.896103   2.497095 O.3        1 UNL1     -0.4605
     8 C         -3.734396   -1.114543   3.763006 C.ar        1 UNL1     0.1310
     9 C         -4.556402   -2.1853   4.130547 C.ar        1 UNL1     0.0226
     10 C         -5.012505   -2.329145   5.446291 C.ar        1 UNL1     0.1343
     11 C         -4.637813   -1.41788   6.43272 C.ar        1 UNL1     0.1007
     12 C         -3.850893   -0.321877   6.068966 C.ar        1 UNL1     0.1389
     13 C         -3.394583   -0.176017   4.745358 C.ar        1 UNL1     0.0229
     14 C         -5.021842   -1.567958   7.855447 C.2        1 UNL1     0.1740
     15 C         -4.350333   -0.626847   8.811969 C.3        1 UNL1     0.0520
     16 C         -4.273461   0.747557   8.161536 C.3        1 UNL1     0.1322
     17 O         -3.512829   0.692384   6.934562 O.3        1 UNL1     -0.4828
     18 C         -5.629258   1.446777   8.036512 C.ar        1 UNL1     -0.0067
     19 C         -6.00222   2.019001   6.802951 C.ar        1 UNL1     -0.0516
     20 C         -7.214058   2.706759   6.667301 C.ar        1 UNL1     -0.0198
     21 C         -8.056371   2.83527   7.757173 C.ar        1 UNL1     0.1169
     22 C         -7.732192   2.253965   8.97612 C.ar        1 UNL1     -0.0198
     23 C         -6.528954   1.550323   9.107128 C.ar        1 UNL1     -0.0516
     24 O         -9.210471   3.544399   7.597204 O.3        1 UNL1     -0.5068
     25 O         -5.775473   -2.447913   8.263131 O.2        1 UNL1     -0.2917
     26 O         -5.812305   -3.395025   5.739215 O.3        1 UNL1     -0.5058
     27 O         -0.231904   -0.199607   2.540927 O.3        1 UNL1     -0.3648
     28 O         0.26012   -1.952674   -0.574655 O.3        1 UNL1     -0.3841
     29 O         -2.458633   0.363089   -0.264069 O.3        1 UNL1     -0.3863
     30 O         -2.456848   -3.310869   -0.217834 O.3        1 UNL1     -0.3829
     31 H         0.617132   -1.851592   1.814243 H        1 UNL1     0.0937
     32 H         0.0   0.0   0.0 H        1 UNL1     0.0671
     33 H         -1.869321   -1.188009   -1.417561 H        1 UNL1     0.0649
     34 H         -3.848192   -1.826461   0.051671 H        1 UNL1     0.0683
     35 H         -3.209812   -2.937628   2.142611 H        1 UNL1     0.1085
     36 H         -4.837111   -2.95772   3.422953 H        1 UNL1     0.0691
     37 H         -2.78406   0.686703   4.487545 H        1 UNL1     0.0691
     38 H         -3.350191   -1.022489   9.018635 H        1 UNL1     0.0385
     39 H         -4.91217   -0.609177   9.752078 H        1 UNL1     0.0385
     40 H         -3.676802   1.387179   8.825916 H        1 UNL1     0.0789
     41 H         -5.354271   1.93984   5.934881 H        1 UNL1     0.0623
     42 H         -7.484913   3.153825   5.714001 H        1 UNL1     0.0654
     43 H         -8.391497   2.335631   9.832016 H        1 UNL1     0.0654
     44 H         -6.312578   1.099952   10.071074 H        1 UNL1     0.0623
     45 H         -8.979517   4.454019   7.348271 H        1 UNL1     0.2921
     46 H         -5.412844   -3.911688   6.456782 H        1 UNL1     0.2922
     47 H         0.51239   0.353297   2.264915 H        1 UNL1     0.2126
     48 H         1.195663   -1.880568   -0.303927 H        1 UNL1     0.2101
     49 H         -2.01613   0.946047   -0.901364 H        1 UNL1     0.2100
     50 H         -2.693765   -3.322815   -1.168328 H        1 UNL1     0.2102
@<TRIPOS>BOND
     1     1     2    1
     2     1     6    1
     3     2     3    1
     4     3     4    1
     5     3    29    1
     6     3    33    1
     7     4     5    1
     8     5     6    1
     9     5     7    1
    10     5    35    1
    11     7     8    1
    12     8     9   ar
    13     8    13   ar
    14     9    10   ar
    15     9    36    1
    16    10    11   ar
    17    10    26    1
    18    11    12   ar
    19    11    14    1
    20    12    13   ar
    21    12    17    1
    22    13    37    1
    23    14    15    1
    24    14    25    2
    25    15    16    1
    26    15    38    1
    27    15    39    1
    28    16    17    1
    29    16    18    1
    30    16    40    1
    31    18    19   ar
    32    18    23   ar
    33    19    20   ar
    34    19    41    1
    35    20    21   ar
    36    20    42    1
    37    21    22   ar
    38    21    24    1
    39    22    23   ar
    40    22    43    1
    41    23    44    1
    42    24    45    1
    43    26    46    1
    44    27    47    1
    45    28    48    1
    46    29    49    1
    47    30    50    1
    48     1    31    1
    49     1    27    1
    50     2    32    1
    51     2    28    1
    52     4    34    1
    53     4    30    1
