@<TRIPOS>MOLECULE
*****
 50 53 0 0 0
SMALL
GASTEIGER

@<TRIPOS>ATOM
     1 C         0.32531   -0.621212   2.068592 C.3        1 UNL1     0.1889
     2 C         0.020481   -0.931942   0.578469 C.3        1 UNL1     0.1342
     3 C         -1.288468   -1.699684   0.338285 C.3        1 UNL1     0.1174
     4 C         -1.601209   -2.702494   1.451695 C.3        1 UNL1     0.1456
     5 C         -1.421649   -2.099344   2.856804 C.3        1 UNL1     0.2326
     6 O         -0.093844   -1.601857   3.006164 O.3        1 UNL1     -0.3076
     7 O         -2.430382   -1.13125   3.198232 O.3        1 UNL1     -0.4605
     8 C         -2.765648   -1.05186   4.537941 C.ar        1 UNL1     0.1310
     9 C         -3.015778   -2.143266   5.376732 C.ar        1 UNL1     0.0226
     10 C         -3.332279   -1.959904   6.728068 C.ar        1 UNL1     0.1343
     11 C         -3.38301   -0.680399   7.279553 C.ar        1 UNL1     0.1007
     12 C         -3.175456   0.419185   6.442522 C.ar        1 UNL1     0.1389
     13 C         -2.859833   0.234664   5.083197 C.ar        1 UNL1     0.0229
     14 C         -3.630014   -0.433112   8.718994 C.2        1 UNL1     0.1740
     15 C         -3.429112   0.981064   9.178662 C.3        1 UNL1     0.0520
     16 C         -3.987034   1.917126   8.115427 C.3        1 UNL1     0.1322
     17 O         -3.307426   1.724772   6.855188 O.3        1 UNL1     -0.4828
     18 C         -5.514648   1.901748   8.021174 C.ar        1 UNL1     -0.0067
     19 C         -6.12933   1.767692   6.759268 C.ar        1 UNL1     -0.0516
     20 C         -7.523245   1.797403   6.632458 C.ar        1 UNL1     -0.0198
     21 C         -8.31151   1.967599   7.756512 C.ar        1 UNL1     0.1169
     22 C         -7.736732   2.06878   9.016762 C.ar        1 UNL1     -0.0198
     23 C         -6.343523   2.020591   9.146002 C.ar        1 UNL1     -0.0516
     24 O         -9.663805   2.029581   7.5896 O.3        1 UNL1     -0.5068
     25 O         -3.90325   -1.322575   9.520669 O.2        1 UNL1     -0.2917
     26 O         -3.56627   -3.065935   7.491958 O.3        1 UNL1     -0.5058
     27 O         -0.065498   0.683618   2.465423 O.3        1 UNL1     -0.3648
     28 O         1.09189   -1.736636   0.051919 O.3        1 UNL1     -0.3841
     29 O         -2.367298   -0.796649   0.087718 O.3        1 UNL1     -0.3863
     30 O         -0.725712   -3.843612   1.321135 O.3        1 UNL1     -0.3829
     31 H         1.416003   -0.618836   2.170876 H        1 UNL1     0.0937
     32 H         -0.0   0.0   0.0 H        1 UNL1     0.0671
     33 H         -1.172082   -2.279389   -0.588061 H        1 UNL1     0.0649
     34 H         -2.627198   -3.071786   1.345056 H        1 UNL1     0.0683
     35 H         -1.516737   -2.961431   3.528848 H        1 UNL1     0.1085
     36 H         -2.937089   -3.165009   5.021811 H        1 UNL1     0.0691
     37 H         -2.703828   1.107178   4.452424 H        1 UNL1     0.0691
     38 H         -2.353444   1.135188   9.315454 H        1 UNL1     0.0385
     39 H         -3.920098   1.116458   10.148393 H        1 UNL1     0.0385
     40 H         -3.72469   2.940706   8.415394 H        1 UNL1     0.0789
     41 H         -5.532362   1.642137   5.860649 H        1 UNL1     0.0623
     42 H         -7.984893   1.70492   5.652488 H        1 UNL1     0.0654
     43 H         -8.345232   2.187265   9.905356 H        1 UNL1     0.0654
     44 H         -5.928924   2.092103   10.146921 H        1 UNL1     0.0623
     45 H         -9.867699   2.786181   7.016276 H        1 UNL1     0.2921
     46 H         -2.962471   -3.068212   8.251453 H        1 UNL1     0.2922
     47 H         0.350211   1.345524   1.895399 H        1 UNL1     0.2126
     48 H         1.905387   -1.201153   0.124126 H        1 UNL1     0.2101
     49 H         -2.244636   -0.366892   -0.773709 H        1 UNL1     0.2100
     50 H         -0.948364   -4.300182   0.483471 H        1 UNL1     0.2102
@<TRIPOS>BOND
     1     1     2    1
     2     1     6    1
     3     2     3    1
     4     3     4    1
     5     3    29    1
     6     3    33    1
     7     4     5    1
     8     5     6    1
     9     5     7    1
    10     5    35    1
    11     7     8    1
    12     8     9   ar
    13     8    13   ar
    14     9    10   ar
    15     9    36    1
    16    10    11   ar
    17    10    26    1
    18    11    12   ar
    19    11    14    1
    20    12    13   ar
    21    12    17    1
    22    13    37    1
    23    14    15    1
    24    14    25    2
    25    15    16    1
    26    15    38    1
    27    15    39    1
    28    16    17    1
    29    16    18    1
    30    16    40    1
    31    18    19   ar
    32    18    23   ar
    33    19    20   ar
    34    19    41    1
    35    20    21   ar
    36    20    42    1
    37    21    22   ar
    38    21    24    1
    39    22    23   ar
    40    22    43    1
    41    23    44    1
    42    24    45    1
    43    26    46    1
    44    27    47    1
    45    28    48    1
    46    29    49    1
    47    30    50    1
    48     1    31    1
    49     1    27    1
    50     2    32    1
    51     2    28    1
    52     4    34    1
    53     4    30    1
