@<TRIPOS>MOLECULE
*****
 50 53 0 0 0
SMALL
GASTEIGER

@<TRIPOS>ATOM
     1 C         -1.390916   0.90275   1.421689 C.3        1 UNL1     0.1889
     2 C         -0.664918   0.871182   0.049876 C.3        1 UNL1     0.1342
     3 C         0.142009   2.136852   -0.277863 C.3        1 UNL1     0.1174
     4 C         -0.510577   3.412678   0.260206 C.3        1 UNL1     0.1456
     5 C         -0.973295   3.26786   1.721467 C.3        1 UNL1     0.2326
     6 O         -1.875906   2.170433   1.839013 O.3        1 UNL1     -0.3076
     7 O         0.113063   3.210444   2.663725 O.3        1 UNL1     -0.4605
     8 C         1.385493   3.190945   2.121444 C.ar        1 UNL1     0.1310
     9 C         2.574396   3.366287   2.837729 C.ar        1 UNL1     0.0226
     10 C         3.818915   3.312326   2.198851 C.ar        1 UNL1     0.1343
     11 C         3.905835   3.057766   0.830829 C.ar        1 UNL1     0.1007
     12 C         2.723949   2.9218   0.097725 C.ar        1 UNL1     0.1389
     13 C         1.472624   2.97873   0.73989 C.ar        1 UNL1     0.0229
     14 C         5.196727   2.906962   0.120188 C.2        1 UNL1     0.1740
     15 C         5.105453   2.415904   -1.294761 C.3        1 UNL1     0.0520
     16 C         3.916686   3.092156   -1.963696 C.3        1 UNL1     0.1322
     17 O         2.689663   2.77614   -1.269709 O.3        1 UNL1     -0.4828
     18 C         4.127422   4.584205   -2.232217 C.ar        1 UNL1     -0.0067
     19 C         5.359974   5.181009   -1.896278 C.ar        1 UNL1     -0.0516
     20 C         5.569065   6.552404   -2.084748 C.ar        1 UNL1     -0.0198
     21 C         4.553276   7.33738   -2.600319 C.ar        1 UNL1     0.1169
     22 C         3.340032   6.772737   -2.971876 C.ar        1 UNL1     -0.0198
     23 C         3.137094   5.398119   -2.800715 C.ar        1 UNL1     -0.0516
     24 O         4.780402   8.6756   -2.734419 O.3        1 UNL1     -0.5068
     25 O         6.287788   3.087305   0.654555 O.2        1 UNL1     -0.2917
     26 O         4.940611   3.492591   2.954422 O.3        1 UNL1     -0.5058
     27 O         -0.672656   0.250178   2.456599 O.3        1 UNL1     -0.3648
     28 O         -1.652746   0.712882   -0.985423 O.3        1 UNL1     -0.3841
     29 O         1.50171   1.993077   0.137679 O.3        1 UNL1     -0.3863
     30 O         -1.65413   3.741331   -0.558306 O.3        1 UNL1     -0.3829
     31 H         -2.301839   0.305064   1.307364 H        1 UNL1     0.0937
     32 H         0.0   0.0   0.0 H        1 UNL1     0.0671
     33 H         0.180162   2.236366   -1.371647 H        1 UNL1     0.0649
     34 H         0.189843   4.251738   0.18411 H        1 UNL1     0.0683
     35 H         -1.554362   4.179989   1.906564 H        1 UNL1     0.1085
     36 H         2.576463   3.51179   3.912412 H        1 UNL1     0.0691
     37 H         0.567262   2.870929   0.146432 H        1 UNL1     0.0691
     38 H         4.973696   1.329175   -1.260321 H        1 UNL1     0.0385
     39 H         6.04776   2.630034   -1.8105 H        1 UNL1     0.0385
     40 H         3.798056   2.632546   -2.954255 H        1 UNL1     0.0789
     41 H         6.169947   4.588128   -1.481446 H        1 UNL1     0.0623
     42 H         6.519809   7.002951   -1.810697 H        1 UNL1     0.0654
     43 H         2.543057   7.375603   -3.390557 H        1 UNL1     0.0654
     44 H         2.180753   4.988781   -3.111679 H        1 UNL1     0.0623
     45 H         4.270716   8.998466   -3.495139 H        1 UNL1     0.2921
     46 H         5.618983   3.940471   2.424679 H        1 UNL1     0.2922
     47 H         -1.12127   -0.568347   2.710808 H        1 UNL1     0.2126
     48 H         -1.62486   1.526184   -1.525324 H        1 UNL1     0.2101
     49 H         2.060348   2.630676   -0.334746 H        1 UNL1     0.2100
     50 H         -1.695629   4.716626   -0.640703 H        1 UNL1     0.2102
@<TRIPOS>BOND
     1     1     2    1
     2     1     6    1
     3     2     3    1
     4     3     4    1
     5     3    29    1
     6     3    33    1
     7     4     5    1
     8     5     6    1
     9     5     7    1
    10     5    35    1
    11     7     8    1
    12     8     9   ar
    13     8    13   ar
    14     9    10   ar
    15     9    36    1
    16    10    11   ar
    17    10    26    1
    18    11    12   ar
    19    11    14    1
    20    12    13   ar
    21    12    17    1
    22    13    37    1
    23    14    15    1
    24    14    25    2
    25    15    16    1
    26    15    38    1
    27    15    39    1
    28    16    17    1
    29    16    18    1
    30    16    40    1
    31    18    19   ar
    32    18    23   ar
    33    19    20   ar
    34    19    41    1
    35    20    21   ar
    36    20    42    1
    37    21    22   ar
    38    21    24    1
    39    22    23   ar
    40    22    43    1
    41    23    44    1
    42    24    45    1
    43    26    46    1
    44    27    47    1
    45    28    48    1
    46    29    49    1
    47    30    50    1
    48     1    31    1
    49     1    27    1
    50     2    32    1
    51     2    28    1
    52     4    34    1
    53     4    30    1
