@<TRIPOS>MOLECULE
*****
 50 53 0 0 0
SMALL
GASTEIGER

@<TRIPOS>ATOM
     1 C         -0.550261   -1.454586   1.533687 C.3        1 UNL1     0.1889
     2 C         -0.573915   -0.9322   0.072012 C.3        1 UNL1     0.1342
     3 C         -1.979481   -0.701053   -0.50368 C.3        1 UNL1     0.1174
     4 C         -3.004251   -1.717323   0.006376 C.3        1 UNL1     0.1456
     5 C         -2.925197   -1.921156   1.530373 C.3        1 UNL1     0.2326
     6 O         -1.609123   -2.327452   1.898805 O.3        1 UNL1     -0.3076
     7 O         -3.400897   -0.791862   2.285175 O.3        1 UNL1     -0.4605
     8 C         -3.997794   -1.081945   3.498885 C.ar        1 UNL1     0.1310
     9 C         -4.943163   -2.090002   3.716599 C.ar        1 UNL1     0.0226
     10 C         -5.478316   -2.317531   4.990076 C.ar        1 UNL1     0.1343
     11 C         -5.062931   -1.557325   6.082497 C.ar        1 UNL1     0.1007
     12 C         -4.150016   -0.520915   5.869838 C.ar        1 UNL1     0.1389
     13 C         -3.614049   -0.290613   4.588772 C.ar        1 UNL1     0.0229
     14 C         -5.532597   -1.80969   7.464481 C.2        1 UNL1     0.1740
     15 C         -4.81776   -1.048829   8.542278 C.3        1 UNL1     0.0520
     16 C         -4.566943   0.368517   8.046115 C.3        1 UNL1     0.1322
     17 O         -3.754258   0.357422   6.851757 O.3        1 UNL1     -0.4828
     18 C         -5.835559   1.218553   7.942312 C.ar        1 UNL1     -0.0067
     19 C         -5.798846   2.432962   7.226716 C.ar        1 UNL1     -0.0516
     20 C         -6.928012   3.257215   7.152191 C.ar        1 UNL1     -0.0198
     21 C         -8.095091   2.882656   7.793642 C.ar        1 UNL1     0.1169
     22 C         -8.172205   1.676632   8.478038 C.ar        1 UNL1     -0.0198
     23 C         -7.048701   0.84339   8.537235 C.ar        1 UNL1     -0.0516
     24 O         -9.16292   3.728931   7.730718 O.3        1 UNL1     -0.5068
     25 O         -6.392494   -2.640503   7.745214 O.2        1 UNL1     -0.2917
     26 O         -6.397308   -3.315536   5.135073 O.3        1 UNL1     -0.5058
     27 O         -0.359836   -0.430602   2.497005 O.3        1 UNL1     -0.3648
     28 O         0.079571   -1.900767   -0.769143 O.3        1 UNL1     -0.3841
     29 O         -2.393872   0.651625   -0.302001 O.3        1 UNL1     -0.3863
     30 O         -2.776881   -2.986567   -0.644018 O.3        1 UNL1     -0.3829
     31 H         0.342732   -2.082201   1.627175 H        1 UNL1     0.0937
     32 H         0.0   0.0   0.0 H        1 UNL1     0.0671
     33 H         -1.92062   -0.828752   -1.59361 H        1 UNL1     0.0649
     34 H         -4.016226   -1.395613   -0.263459 H        1 UNL1     0.0683
     35 H         -3.58706   -2.776003   1.717599 H        1 UNL1     0.1085
     36 H         -5.265182   -2.751469   2.919801 H        1 UNL1     0.0691
     37 H         -2.905748   0.523245   4.44935 H        1 UNL1     0.0691
     38 H         -3.875438   -1.568735   8.745388 H        1 UNL1     0.0385
     39 H         -5.422146   -1.066913   9.455607 H        1 UNL1     0.0385
     40 H         -3.942493   0.869093   8.798449 H        1 UNL1     0.0789
     41 H         -4.89207   2.753742   6.722228 H        1 UNL1     0.0623
     42 H         -6.883577   4.196957   6.607285 H        1 UNL1     0.0654
     43 H         -9.085661   1.366474   8.971302 H        1 UNL1     0.0654
     44 H         -7.147744   -0.096524   9.071648 H        1 UNL1     0.0623
     45 H         -8.918366   4.563862   8.161764 H        1 UNL1     0.2921
     46 H         -6.100873   -3.93064   5.824409 H        1 UNL1     0.2922
     47 H         0.439517   0.075216   2.294415 H        1 UNL1     0.2126
     48 H         1.021111   -1.906382   -0.509908 H        1 UNL1     0.2101
     49 H         -1.872096   1.244235   -0.866232 H        1 UNL1     0.2100
     50 H         -2.994618   -2.882129   -1.593437 H        1 UNL1     0.2102
@<TRIPOS>BOND
     1     1     2    1
     2     1     6    1
     3     2     3    1
     4     3     4    1
     5     3    29    1
     6     3    33    1
     7     4     5    1
     8     5     6    1
     9     5     7    1
    10     5    35    1
    11     7     8    1
    12     8     9   ar
    13     8    13   ar
    14     9    10   ar
    15     9    36    1
    16    10    11   ar
    17    10    26    1
    18    11    12   ar
    19    11    14    1
    20    12    13   ar
    21    12    17    1
    22    13    37    1
    23    14    15    1
    24    14    25    2
    25    15    16    1
    26    15    38    1
    27    15    39    1
    28    16    17    1
    29    16    18    1
    30    16    40    1
    31    18    19   ar
    32    18    23   ar
    33    19    20   ar
    34    19    41    1
    35    20    21   ar
    36    20    42    1
    37    21    22   ar
    38    21    24    1
    39    22    23   ar
    40    22    43    1
    41    23    44    1
    42    24    45    1
    43    26    46    1
    44    27    47    1
    45    28    48    1
    46    29    49    1
    47    30    50    1
    48     1    31    1
    49     1    27    1
    50     2    32    1
    51     2    28    1
    52     4    34    1
    53     4    30    1
