@<TRIPOS>MOLECULE
*****
 50 53 0 0 0
SMALL
GASTEIGER

@<TRIPOS>ATOM
     1 C         -0.294603   -1.464067   1.593901 C.3        1 UNL1     0.1889
     2 C         -0.469365   -0.98327   0.128216 C.3        1 UNL1     0.1342
     3 C         -1.926565   -0.909523   -0.353027 C.3        1 UNL1     0.1174
     4 C         -2.805482   -2.010999   0.24478 C.3        1 UNL1     0.1456
     5 C         -2.604174   -2.167828   1.763083 C.3        1 UNL1     0.2326
     6 O         -1.231734   -2.429962   2.046921 O.3        1 UNL1     -0.3076
     7 O         -3.141392   -1.073865   2.528565 O.3        1 UNL1     -0.4605
     8 C         -3.622896   -1.392403   3.785631 C.ar        1 UNL1     0.1310
     9 C         -4.446242   -2.483002   4.085621 C.ar        1 UNL1     0.0226
     10 C         -4.868636   -2.73183   5.396946 C.ar        1 UNL1     0.1343
     11 C         -4.458047   -1.908902   6.444823 C.ar        1 UNL1     0.1007
     12 C         -3.6694   -0.793162   6.15166 C.ar        1 UNL1     0.1389
     13 C         -3.246988   -0.541675   4.832662 C.ar        1 UNL1     0.0229
     14 C         -4.805612   -2.173442   7.860228 C.2        1 UNL1     0.1740
     15 C         -4.098805   -1.3208   8.872637 C.3        1 UNL1     0.0520
     16 C         -4.02457   0.102204   8.336441 C.3        1 UNL1     0.1322
     17 O         -3.297541   0.142754   7.088702 O.3        1 UNL1     -0.4828
     18 C         -5.375647   0.820851   8.307034 C.ar        1 UNL1     -0.0067
     19 C         -5.607892   1.895348   9.190058 C.ar        1 UNL1     -0.0516
     20 C         -6.848365   2.543548   9.222073 C.ar        1 UNL1     -0.0198
     21 C         -7.864774   2.122878   8.383159 C.ar        1 UNL1     0.1169
     22 C         -7.6558   1.089512   7.4791 C.ar        1 UNL1     -0.0198
     23 C         -6.409547   0.453216   7.433943 C.ar        1 UNL1     -0.0516
     24 O         -9.071215   2.753363   8.469118 O.3        1 UNL1     -0.5068
     25 O         -5.557497   -3.077821   8.214139 O.2        1 UNL1     -0.2917
     26 O         -5.671722   -3.811556   5.622399 O.3        1 UNL1     -0.5058
     27 O         -0.145963   -0.402442   2.523226 O.3        1 UNL1     -0.3648
     28 O         0.222074   -1.901585   -0.738568 O.3        1 UNL1     -0.3841
     29 O         -2.462815   0.399036   -0.147501 O.3        1 UNL1     -0.3863
     30 O         -2.493417   -3.266612   -0.39689 O.3        1 UNL1     -0.3829
     31 H         0.662188   -1.995853   1.636705 H        1 UNL1     0.0937
     32 H         0.0   0.0   0.0 H        1 UNL1     0.0671
     33 H         -1.92801   -1.057714   -1.441951 H        1 UNL1     0.0649
     34 H         -3.860849   -1.799855   0.03979 H        1 UNL1     0.0683
     35 H         -3.161034   -3.08017   2.010908 H        1 UNL1     0.1085
     36 H         -4.753969   -3.19154   3.324439 H        1 UNL1     0.0691
     37 H         -2.634342   0.334287   4.63055 H        1 UNL1     0.0691
     38 H         -3.097808   -1.740703   9.018287 H        1 UNL1     0.0385
     39 H         -4.635168   -1.376564   9.826044 H        1 UNL1     0.0385
     40 H         -3.403599   0.679325   9.034901 H        1 UNL1     0.0789
     41 H         -4.829211   2.23849   9.86501 H        1 UNL1     0.0623
     42 H         -7.018931   3.363089   9.915811 H        1 UNL1     0.0654
     43 H         -8.440065   0.761972   6.807121 H        1 UNL1     0.0654
     44 H         -6.278029   -0.343343   6.707966 H        1 UNL1     0.0623
     45 H         -9.13222   3.398669   7.746224 H        1 UNL1     0.2921
     46 H         -5.423426   -4.22974   6.461972 H        1 UNL1     0.2922
     47 H         0.754441   -0.390556   2.876766 H        1 UNL1     0.2126
     48 H         -0.359112   -2.050301   -1.509178 H        1 UNL1     0.2101
     49 H         -2.983755   0.41738   0.671082 H        1 UNL1     0.2100
     50 H         -1.929715   -3.785354   0.213733 H        1 UNL1     0.2102
@<TRIPOS>BOND
     1     1     2    1
     2     1     6    1
     3     2     3    1
     4     3     4    1
     5     3    29    1
     6     3    33    1
     7     4     5    1
     8     5     6    1
     9     5     7    1
    10     5    35    1
    11     7     8    1
    12     8     9   ar
    13     8    13   ar
    14     9    10   ar
    15     9    36    1
    16    10    11   ar
    17    10    26    1
    18    11    12   ar
    19    11    14    1
    20    12    13   ar
    21    12    17    1
    22    13    37    1
    23    14    15    1
    24    14    25    2
    25    15    16    1
    26    15    38    1
    27    15    39    1
    28    16    17    1
    29    16    18    1
    30    16    40    1
    31    18    19   ar
    32    18    23   ar
    33    19    20   ar
    34    19    41    1
    35    20    21   ar
    36    20    42    1
    37    21    22   ar
    38    21    24    1
    39    22    23   ar
    40    22    43    1
    41    23    44    1
    42    24    45    1
    43    26    46    1
    44    27    47    1
    45    28    48    1
    46    29    49    1
    47    30    50    1
    48     1    31    1
    49     1    27    1
    50     2    32    1
    51     2    28    1
    52     4    34    1
    53     4    30    1
