@<TRIPOS>MOLECULE
*****
 50 53 0 0 0
SMALL
GASTEIGER

@<TRIPOS>ATOM
     1 C         -2.053648   -0.70711   0.230932 C.3        1 UNL1     0.1889
     2 C         -0.713282   -0.183286   0.81314 C.3        1 UNL1     0.1342
     3 C         -0.061136   -1.107354   1.852982 C.3        1 UNL1     0.1174
     4 C         -1.086499   -1.839922   2.721943 C.3        1 UNL1     0.1456
     5 C         -2.228496   -2.456899   1.893967 C.3        1 UNL1     0.2326
     6 O         -2.873942   -1.444024   1.125623 O.3        1 UNL1     -0.3076
     7 O         -1.81836   -3.589519   1.106387 O.3        1 UNL1     -0.4605
     8 C         -2.775549   -4.568184   0.907564 C.ar        1 UNL1     0.1310
     9 C         -3.383768   -5.323554   1.915922 C.ar        1 UNL1     0.0226
     10 C         -4.357992   -6.282542   1.614045 C.ar        1 UNL1     0.1343
     11 C         -4.765179   -6.492896   0.29731 C.ar        1 UNL1     0.1007
     12 C         -4.135725   -5.773695   -0.722162 C.ar        1 UNL1     0.1389
     13 C         -3.154289   -4.81137   -0.41861 C.ar        1 UNL1     0.0229
     14 C         -5.849205   -7.433199   -0.069939 C.2        1 UNL1     0.1740
     15 C         -6.307985   -7.36967   -1.497186 C.3        1 UNL1     0.0520
     16 C         -5.086208   -7.195111   -2.388673 C.3        1 UNL1     0.1322
     17 O         -4.381497   -5.97751   -2.060191 O.3        1 UNL1     -0.4828
     18 C         -4.198928   -8.439723   -2.46866 C.ar        1 UNL1     -0.0067
     19 C         -4.601878   -9.620836   -1.812294 C.ar        1 UNL1     -0.0516
     20 C         -3.791468   -10.762334   -1.825747 C.ar        1 UNL1     -0.0198
     21 C         -2.57523   -10.733231   -2.48434 C.ar        1 UNL1     0.1169
     22 C         -2.166318   -9.595619   -3.168055 C.ar        1 UNL1     -0.0198
     23 C         -2.984972   -8.4599   -3.1703 C.ar        1 UNL1     -0.0516
     24 O         -1.795732   -11.851781   -2.443944 O.3        1 UNL1     -0.5068
     25 O         -6.408375   -8.169438   0.738618 O.2        1 UNL1     -0.2917
     26 O         -4.911587   -6.986372   2.643483 O.3        1 UNL1     -0.5058
     27 O         -1.907958   -1.371611   -1.014058 O.3        1 UNL1     -0.3648
     28 O         -0.958774   1.080612   1.457346 O.3        1 UNL1     -0.3841
     29 O         0.870519   -1.993935   1.229986 O.3        1 UNL1     -0.3863
     30 O         -1.651773   -0.911116   3.672455 O.3        1 UNL1     -0.3829
     31 H         -2.658942   0.175323   -0.003609 H        1 UNL1     0.0937
     32 H         0.0   0.0   0.0 H        1 UNL1     0.0671
     33 H         0.538624   -0.481495   2.528488 H        1 UNL1     0.0649
     34 H         -0.591779   -2.628498   3.299699 H        1 UNL1     0.0683
     35 H         -2.9504   -2.793463   2.648591 H        1 UNL1     0.1085
     36 H         -3.151302   -5.168091   2.963735 H        1 UNL1     0.0691
     37 H         -2.678568   -4.265558   -1.230565 H        1 UNL1     0.0691
     38 H         -6.988717   -6.516571   -1.588578 H        1 UNL1     0.0385
     39 H         -6.86748   -8.280751   -1.735253 H        1 UNL1     0.0385
     40 H         -5.452325   -7.03302   -3.411515 H        1 UNL1     0.0789
     41 H         -5.547851   -9.666284   -1.280579 H        1 UNL1     0.0623
     42 H         -4.107819   -11.663244   -1.305848 H        1 UNL1     0.0654
     43 H         -1.222684   -9.566844   -3.699691 H        1 UNL1     0.0654
     44 H         -2.638993   -7.592141   -3.723597 H        1 UNL1     0.0623
     45 H         -1.558822   -12.027255   -1.51885 H        1 UNL1     0.2921
     46 H         -5.852668   -7.13807   2.46247 H        1 UNL1     0.2922
     47 H         -2.764981   -1.444874   -1.456781 H        1 UNL1     0.2126
     48 H         -0.453043   1.071634   2.292742 H        1 UNL1     0.2101
     49 H         0.944011   -2.811926   1.746981 H        1 UNL1     0.2100
     50 H         -2.539923   -0.652653   3.34981 H        1 UNL1     0.2102
@<TRIPOS>BOND
     1     1     2    1
     2     1     6    1
     3     2     3    1
     4     3     4    1
     5     3    29    1
     6     3    33    1
     7     4     5    1
     8     5     6    1
     9     5     7    1
    10     5    35    1
    11     7     8    1
    12     8     9   ar
    13     8    13   ar
    14     9    10   ar
    15     9    36    1
    16    10    11   ar
    17    10    26    1
    18    11    12   ar
    19    11    14    1
    20    12    13   ar
    21    12    17    1
    22    13    37    1
    23    14    15    1
    24    14    25    2
    25    15    16    1
    26    15    38    1
    27    15    39    1
    28    16    17    1
    29    16    18    1
    30    16    40    1
    31    18    19   ar
    32    18    23   ar
    33    19    20   ar
    34    19    41    1
    35    20    21   ar
    36    20    42    1
    37    21    22   ar
    38    21    24    1
    39    22    23   ar
    40    22    43    1
    41    23    44    1
    42    24    45    1
    43    26    46    1
    44    27    47    1
    45    28    48    1
    46    29    49    1
    47    30    50    1
    48     1    31    1
    49     1    27    1
    50     2    32    1
    51     2    28    1
    52     4    34    1
    53     4    30    1
