@<TRIPOS>MOLECULE
*****
 50 53 0 0 0
SMALL
GASTEIGER

@<TRIPOS>ATOM
     1 C         -0.393828   -1.378364   1.647973 C.3        1 UNL1     0.1889
     2 C         -0.493035   -0.967844   0.154129 C.3        1 UNL1     0.1342
     3 C         -1.925325   -0.89396   -0.396829 C.3        1 UNL1     0.1174
     4 C         -2.850888   -1.949861   0.212697 C.3        1 UNL1     0.1456
     5 C         -2.721474   -2.034689   1.7445 C.3        1 UNL1     0.2326
     6 O         -1.368442   -2.305071   2.103756 O.3        1 UNL1     -0.3076
     7 O         -3.272184   -0.895482   2.430246 O.3        1 UNL1     -0.4605
     8 C         -3.594291   -1.086892   3.761838 C.ar        1 UNL1     0.1310
     9 C         -4.28441   -2.18884   4.278312 C.ar        1 UNL1     0.0226
     10 C         -4.548551   -2.300015   5.648631 C.ar        1 UNL1     0.1343
     11 C         -4.107677   -1.322526   6.53969 C.ar        1 UNL1     0.1007
     12 C         -3.453455   -0.197427   6.030838 C.ar        1 UNL1     0.1389
     13 C         -3.190305   -0.084594   4.652632 C.ar        1 UNL1     0.0229
     14 C         -4.285756   -1.430468   8.006247 C.2        1 UNL1     0.1740
     15 C         -3.557516   -0.406043   8.825862 C.3        1 UNL1     0.0520
     16 C         -3.662772   0.938974   8.120306 C.3        1 UNL1     0.1322
     17 O         -3.072067   0.874875   6.803481 O.3        1 UNL1     -0.4828
     18 C         -5.067588   1.545521   8.156551 C.ar        1 UNL1     -0.0067
     19 C         -5.263991   2.865443   7.701089 C.ar        1 UNL1     -0.0516
     20 C         -6.526661   3.466784   7.764456 C.ar        1 UNL1     -0.0198
     21 C         -7.596981   2.762912   8.286764 C.ar        1 UNL1     0.1169
     22 C         -7.442195   1.449979   8.712309 C.ar        1 UNL1     -0.0198
     23 C         -6.18361   0.842058   8.631977 C.ar        1 UNL1     -0.0516
     24 O         -8.8033   3.394318   8.367522 O.3        1 UNL1     -0.5068
     25 O         -4.915903   -2.336062   8.545969 O.2        1 UNL1     -0.2917
     26 O         -5.227085   -3.399158   6.088018 O.3        1 UNL1     -0.5058
     27 O         -0.267523   -0.274663   2.5304 O.3        1 UNL1     -0.3648
     28 O         0.219587   -1.939199   -0.634126 O.3        1 UNL1     -0.3841
     29 O         -2.445703   0.431834   -0.280178 O.3        1 UNL1     -0.3863
     30 O         -2.533695   -3.240659   -0.352033 O.3        1 UNL1     -0.3829
     31 H         0.54991   -1.923097   1.760688 H        1 UNL1     0.0937
     32 H         0.0   0.0   0.0 H        1 UNL1     0.0671
     33 H         -1.880265   -1.095795   -1.476158 H        1 UNL1     0.0649
     34 H         -3.891753   -1.731731   -0.050782 H        1 UNL1     0.0683
     35 H         -3.305984   -2.924341   2.010481 H        1 UNL1     0.1085
     36 H         -4.604355   -3.009152   3.645189 H        1 UNL1     0.0691
     37 H         -2.680299   0.801789   4.281536 H        1 UNL1     0.0691
     38 H         -2.514024   -0.728402   8.907927 H        1 UNL1     0.0385
     39 H         -3.987715   -0.380149   9.832856 H        1 UNL1     0.0385
     40 H         -3.027239   1.644651   8.672246 H        1 UNL1     0.0789
     41 H         -4.437957   3.442193   7.295283 H        1 UNL1     0.0623
     42 H         -6.662791   4.489318   7.421082 H        1 UNL1     0.0654
     43 H         -8.276886   0.884498   9.109086 H        1 UNL1     0.0654
     44 H         -6.101239   -0.188512   8.963615 H        1 UNL1     0.0623
     45 H         -8.650733   4.352606   8.333986 H        1 UNL1     0.2921
     46 H         -4.859469   -3.687788   6.938291 H        1 UNL1     0.2922
     47 H         0.6185   -0.255811   2.9183 H        1 UNL1     0.2126
     48 H         -0.328814   -2.116244   -1.42257 H        1 UNL1     0.2101
     49 H         -3.00272   0.499244   0.511644 H        1 UNL1     0.2100
     50 H         -1.583149   -3.24072   -0.589045 H        1 UNL1     0.2102
@<TRIPOS>BOND
     1     1     2    1
     2     1     6    1
     3     2     3    1
     4     3     4    1
     5     3    29    1
     6     3    33    1
     7     4     5    1
     8     5     6    1
     9     5     7    1
    10     5    35    1
    11     7     8    1
    12     8     9   ar
    13     8    13   ar
    14     9    10   ar
    15     9    36    1
    16    10    11   ar
    17    10    26    1
    18    11    12   ar
    19    11    14    1
    20    12    13   ar
    21    12    17    1
    22    13    37    1
    23    14    15    1
    24    14    25    2
    25    15    16    1
    26    15    38    1
    27    15    39    1
    28    16    17    1
    29    16    18    1
    30    16    40    1
    31    18    19   ar
    32    18    23   ar
    33    19    20   ar
    34    19    41    1
    35    20    21   ar
    36    20    42    1
    37    21    22   ar
    38    21    24    1
    39    22    23   ar
    40    22    43    1
    41    23    44    1
    42    24    45    1
    43    26    46    1
    44    27    47    1
    45    28    48    1
    46    29    49    1
    47    30    50    1
    48     1    31    1
    49     1    27    1
    50     2    32    1
    51     2    28    1
    52     4    34    1
    53     4    30    1
