@<TRIPOS>MOLECULE
*****
 50 53 0 0 0
SMALL
GASTEIGER

@<TRIPOS>ATOM
     1 C         0.10627   -0.672518   2.075387 C.3        1 UNL1     0.1889
     2 C         -0.610884   -0.581525   0.701578 C.3        1 UNL1     0.1342
     3 C         -2.023425   0.020489   0.754218 C.3        1 UNL1     0.1174
     4 C         -2.777388   -0.345924   2.034999 C.3        1 UNL1     0.1456
     5 C         -1.918249   -0.160809   3.299109 C.3        1 UNL1     0.2326
     6 O         -0.726555   -0.936599   3.194788 O.3        1 UNL1     -0.3076
     7 O         -1.668762   1.218471   3.625704 O.3        1 UNL1     -0.4605
     8 C         -2.781857   2.03732   3.689229 C.ar        1 UNL1     0.1310
     9 C         -3.294183   2.792116   2.62852 C.ar        1 UNL1     0.0226
     10 C         -4.440384   3.579924   2.78816 C.ar        1 UNL1     0.1343
     11 C         -5.116459   3.613449   4.007028 C.ar        1 UNL1     0.1007
     12 C         -4.591048   2.896196   5.085116 C.ar        1 UNL1     0.1389
     13 C         -3.437032   2.106218   4.925076 C.ar        1 UNL1     0.0229
     14 C         -6.378797   4.362119   4.207404 C.2        1 UNL1     0.1740
     15 C         -7.084857   4.108439   5.506894 C.3        1 UNL1     0.0520
     16 C         -6.041976   4.019934   6.612572 C.3        1 UNL1     0.1322
     17 O         -5.113541   2.943069   6.356757 O.3        1 UNL1     -0.4828
     18 C         -5.382506   5.360253   6.94629 C.ar        1 UNL1     -0.0067
     19 C         -5.078759   5.667464   8.288517 C.ar        1 UNL1     -0.0516
     20 C         -4.519044   6.903433   8.63357 C.ar        1 UNL1     -0.0198
     21 C         -4.265718   7.841411   7.64876 C.ar        1 UNL1     0.1169
     22 C         -4.522887   7.55533   6.314271 C.ar        1 UNL1     -0.0198
     23 C         -5.065476   6.312376   5.966826 C.ar        1 UNL1     -0.0516
     24 O         -3.755395   9.048423   8.027037 O.3        1 UNL1     -0.5068
     25 O         -6.878512   5.086549   3.350682 O.2        1 UNL1     -0.2917
     26 O         -4.887992   4.293123   1.714578 O.3        1 UNL1     -0.5058
     27 O         0.990782   0.408486   2.324096 O.3        1 UNL1     -0.3648
     28 O         -0.731468   -1.910452   0.161098 O.3        1 UNL1     -0.3841
     29 O         -1.983136   1.429555   0.519606 O.3        1 UNL1     -0.3863
     30 O         -3.199137   -1.725034   1.958363 O.3        1 UNL1     -0.3829
     31 H         0.759735   -1.550564   2.029601 H        1 UNL1     0.0937
     32 H         0.0   0.0   0.0 H        1 UNL1     0.0671
     33 H         -2.597962   -0.398497   -0.083684 H        1 UNL1     0.0649
     34 H         -3.684512   0.262321   2.121973 H        1 UNL1     0.0683
     35 H         -2.522251   -0.609794   4.097528 H        1 UNL1     0.1085
     36 H         -2.846822   2.764883   1.640974 H        1 UNL1     0.0691
     37 H         -3.04746   1.558152   5.780266 H        1 UNL1     0.0691
     38 H         -7.634991   3.166731   5.406564 H        1 UNL1     0.0385
     39 H         -7.809339   4.910579   5.684306 H        1 UNL1     0.0385
     40 H         -6.566744   3.718089   7.529103 H        1 UNL1     0.0789
     41 H         -5.276598   4.951708   9.08111 H        1 UNL1     0.0623
     42 H         -4.300344   7.133032   9.673506 H        1 UNL1     0.0654
     43 H         -4.314382   8.27686   5.533356 H        1 UNL1     0.0654
     44 H         -5.243871   6.11867   4.913498 H        1 UNL1     0.0623
     45 H         -2.893185   8.898647   8.447605 H        1 UNL1     0.2921
     46 H         -5.85818   4.305156   1.715919 H        1 UNL1     0.2922
     47 H         1.012076   1.005535   1.563216 H        1 UNL1     0.2126
     48 H         -0.583488   -1.835469   -0.801301 H        1 UNL1     0.2101
     49 H         -1.165568   1.662966   0.051743 H        1 UNL1     0.2100
     50 H         -2.854086   -2.099791   1.121578 H        1 UNL1     0.2102
@<TRIPOS>BOND
     1     1     2    1
     2     1     6    1
     3     2     3    1
     4     3     4    1
     5     3    29    1
     6     3    33    1
     7     4     5    1
     8     5     6    1
     9     5     7    1
    10     5    35    1
    11     7     8    1
    12     8     9   ar
    13     8    13   ar
    14     9    10   ar
    15     9    36    1
    16    10    11   ar
    17    10    26    1
    18    11    12   ar
    19    11    14    1
    20    12    13   ar
    21    12    17    1
    22    13    37    1
    23    14    15    1
    24    14    25    2
    25    15    16    1
    26    15    38    1
    27    15    39    1
    28    16    17    1
    29    16    18    1
    30    16    40    1
    31    18    19   ar
    32    18    23   ar
    33    19    20   ar
    34    19    41    1
    35    20    21   ar
    36    20    42    1
    37    21    22   ar
    38    21    24    1
    39    22    23   ar
    40    22    43    1
    41    23    44    1
    42    24    45    1
    43    26    46    1
    44    27    47    1
    45    28    48    1
    46    29    49    1
    47    30    50    1
    48     1    31    1
    49     1    27    1
    50     2    32    1
    51     2    28    1
    52     4    34    1
    53     4    30    1
