@<TRIPOS>MOLECULE
*****
 50 53 0 0 0
SMALL
GASTEIGER

@<TRIPOS>ATOM
     1 C         -0.323092   -1.362479   1.676325 C.3        1 UNL1     0.1889
     2 C         -0.46442   -0.977662   0.179034 C.3        1 UNL1     0.1342
     3 C         -1.909455   -0.94895   -0.342039 C.3        1 UNL1     0.1174
     4 C         -2.794266   -2.018696   0.302842 C.3        1 UNL1     0.1456
     5 C         -2.630388   -2.076608   1.832598 C.3        1 UNL1     0.2326
     6 O         -1.26352   -2.306709   2.166653 O.3        1 UNL1     -0.3076
     7 O         -3.195842   -0.941457   2.51305 O.3        1 UNL1     -0.4605
     8 C         -3.706563   -1.184047   3.775525 C.ar        1 UNL1     0.1310
     9 C         -4.531158   -2.259438   4.123201 C.ar        1 UNL1     0.0226
     10 C         -4.984507   -2.428649   5.436877 C.ar        1 UNL1     0.1343
     11 C         -4.604429   -1.538924   6.440755 C.ar        1 UNL1     0.1007
     12 C         -3.814827   -0.438258   6.097468 C.ar        1 UNL1     0.1389
     13 C         -3.361284   -0.266871   4.77597 C.ar        1 UNL1     0.0229
     14 C         -4.985463   -1.716784   7.861083 C.2        1 UNL1     0.1740
     15 C         -4.308545   -0.797562   8.834922 C.3        1 UNL1     0.0520
     16 C         -4.228779   0.589581   8.212483 C.3        1 UNL1     0.1322
     17 O         -3.471336   0.557027   6.982731 O.3        1 UNL1     -0.4828
     18 C         -5.582587   1.295563   8.105164 C.ar        1 UNL1     -0.0067
     19 C         -5.950321   1.906955   6.888947 C.ar        1 UNL1     -0.0516
     20 C         -7.160164   2.601473   6.771098 C.ar        1 UNL1     -0.0198
     21 C         -8.005655   2.697828   7.861825 C.ar        1 UNL1     0.1169
     22 C         -7.686678   2.077932   9.063 C.ar        1 UNL1     -0.0198
     23 C         -6.485457   1.367703   9.175686 C.ar        1 UNL1     -0.0516
     24 O         -9.157635   3.414331   7.720517 O.3        1 UNL1     -0.5068
     25 O         -5.740963   -2.602452   8.252616 O.2        1 UNL1     -0.2917
     26 O         -5.787063   -3.497711   5.709996 O.3        1 UNL1     -0.5058
     27 O         -0.206838   -0.242462   2.539363 O.3        1 UNL1     -0.3648
     28 O         0.256341   -1.942468   -0.609864 O.3        1 UNL1     -0.3841
     29 O         -2.461444   0.364727   -0.233907 O.3        1 UNL1     -0.3863
     30 O         -2.455714   -3.309485   -0.249367 O.3        1 UNL1     -0.3829
     31 H         0.636617   -1.881077   1.776793 H        1 UNL1     0.0937
     32 H         0.0   0.0   0.0 H        1 UNL1     0.0671
     33 H         -1.881974   -1.166145   -1.418975 H        1 UNL1     0.0649
     34 H         -3.845764   -1.83136   0.058594 H        1 UNL1     0.0683
     35 H         -3.185897   -2.976734   2.124253 H        1 UNL1     0.1085
     36 H         -4.816119   -3.016343   3.400697 H        1 UNL1     0.0691
     37 H         -2.74858   0.598966   4.534284 H        1 UNL1     0.0691
     38 H         -3.309198   -1.200554   9.030956 H        1 UNL1     0.0385
     39 H         -4.868019   -0.797284   9.776605 H        1 UNL1     0.0385
     40 H         -3.62841   1.213585   8.888277 H        1 UNL1     0.0789
     41 H         -5.299788   1.853449   6.020849 H        1 UNL1     0.0623
     42 H         -7.426967   3.078765   5.831406 H        1 UNL1     0.0654
     43 H         -8.348523   2.13435   9.918973 H        1 UNL1     0.0654
     44 H         -6.273173   0.886903   10.125745 H        1 UNL1     0.0623
     45 H         -8.923458   4.336246   7.525705 H        1 UNL1     0.2921
     46 H         -5.387537   -4.0302   6.415862 H        1 UNL1     0.2922
     47 H         0.522968   0.325201   2.254756 H        1 UNL1     0.2126
     48 H         1.197938   -1.856147   -0.365578 H        1 UNL1     0.2101
     49 H         -2.031535   0.956833   -0.871389 H        1 UNL1     0.2100
     50 H         -2.702072   -3.30581   -1.197527 H        1 UNL1     0.2102
@<TRIPOS>BOND
     1     1     2    1
     2     1     6    1
     3     2     3    1
     4     3     4    1
     5     3    29    1
     6     3    33    1
     7     4     5    1
     8     5     6    1
     9     5     7    1
    10     5    35    1
    11     7     8    1
    12     8     9   ar
    13     8    13   ar
    14     9    10   ar
    15     9    36    1
    16    10    11   ar
    17    10    26    1
    18    11    12   ar
    19    11    14    1
    20    12    13   ar
    21    12    17    1
    22    13    37    1
    23    14    15    1
    24    14    25    2
    25    15    16    1
    26    15    38    1
    27    15    39    1
    28    16    17    1
    29    16    18    1
    30    16    40    1
    31    18    19   ar
    32    18    23   ar
    33    19    20   ar
    34    19    41    1
    35    20    21   ar
    36    20    42    1
    37    21    22   ar
    38    21    24    1
    39    22    23   ar
    40    22    43    1
    41    23    44    1
    42    24    45    1
    43    26    46    1
    44    27    47    1
    45    28    48    1
    46    29    49    1
    47    30    50    1
    48     1    31    1
    49     1    27    1
    50     2    32    1
    51     2    28    1
    52     4    34    1
    53     4    30    1
