@<TRIPOS>MOLECULE
*****
 50 53 0 0 0
SMALL
GASTEIGER

@<TRIPOS>ATOM
     1 C         -0.338947   -1.333187   1.696624 C.3        1 UNL1     0.1889
     2 C         -0.465754   -0.974655   0.191527 C.3        1 UNL1     0.1342
     3 C         -1.905625   -0.955881   -0.344088 C.3        1 UNL1     0.1174
     4 C         -2.796277   -2.014715   0.310686 C.3        1 UNL1     0.1456
     5 C         -2.647373   -2.045811   1.842751 C.3        1 UNL1     0.2326
     6 O         -1.28375   -2.269254   2.194139 O.3        1 UNL1     -0.3076
     7 O         -3.219929   -0.899279   2.497704 O.3        1 UNL1     -0.4605
     8 C         -3.732711   -1.117624   3.763764 C.ar        1 UNL1     0.1310
     9 C         -4.553087   -2.189377   4.132043 C.ar        1 UNL1     0.0226
     10 C         -5.008976   -2.333006   5.447884 C.ar        1 UNL1     0.1343
     11 C         -4.635676   -1.420491   6.433685 C.ar        1 UNL1     0.1007
     12 C         -3.850423   -0.323543   6.069175 C.ar        1 UNL1     0.1389
     13 C         -3.394331   -0.177904   4.745469 C.ar        1 UNL1     0.0229
     14 C         -5.019482   -1.57017   7.856514 C.2        1 UNL1     0.1740
     15 C         -4.34941   -0.627377   8.812387 C.3        1 UNL1     0.0520
     16 C         -4.274628   0.746692   8.161004 C.3        1 UNL1     0.1322
     17 O         -3.513908   0.691829   6.934071 O.3        1 UNL1     -0.4828
     18 C         -5.631486   1.443762   8.035492 C.ar        1 UNL1     -0.0067
     19 C         -6.005314   2.014565   6.801535 C.ar        1 UNL1     -0.0516
     20 C         -7.218197   2.700383   6.665407 C.ar        1 UNL1     -0.0198
     21 C         -8.060709   2.828365   7.755187 C.ar        1 UNL1     0.1169
     22 C         -7.735651   2.248398   8.974537 C.ar        1 UNL1     -0.0198
     23 C         -6.531344   1.546679   9.106034 C.ar        1 UNL1     -0.0516
     24 O         -9.215886   3.535626   7.594724 O.3        1 UNL1     -0.5068
     25 O         -5.771774   -2.450989   8.264804 O.2        1 UNL1     -0.2917
     26 O         -5.807154   -3.3999   5.741543 O.3        1 UNL1     -0.5058
     27 O         -0.231611   -0.198203   2.541064 O.3        1 UNL1     -0.3648
     28 O         0.263095   -1.952673   -0.573304 O.3        1 UNL1     -0.3841
     29 O         -2.459182   0.359164   -0.264328 O.3        1 UNL1     -0.3863
     30 O         -2.451805   -3.314754   -0.215553 O.3        1 UNL1     -0.3829
     31 H         0.619942   -1.849396   1.815525 H        1 UNL1     0.0937
     32 H         0.0   0.0   0.0 H        1 UNL1     0.0671
     33 H         -1.867505   -1.191832   -1.416746 H        1 UNL1     0.0649
     34 H         -3.845408   -1.83228   0.052921 H        1 UNL1     0.0683
     35 H         -3.205346   -2.941028   2.144631 H        1 UNL1     0.1085
     36 H         -4.832618   -2.962712   3.424982 H        1 UNL1     0.0691
     37 H         -2.78512   0.685566   4.487061 H        1 UNL1     0.0691
     38 H         -3.348668   -1.021353   9.019329 H        1 UNL1     0.0385
     39 H         -4.911277   -0.609912   9.752482 H        1 UNL1     0.0385
     40 H         -3.678945   1.387682   8.824943 H        1 UNL1     0.0789
     41 H         -5.357242   1.93579   5.933522 H        1 UNL1     0.0623
     42 H         -7.489728   3.146377   5.711797 H        1 UNL1     0.0654
     43 H         -8.395083   2.329651   9.830374 H        1 UNL1     0.0654
     44 H         -6.314287   1.097303   10.070292 H        1 UNL1     0.0623
     45 H         -8.98625   4.446153   7.347893 H        1 UNL1     0.2921
     46 H         -5.406911   -3.915459   6.459467 H        1 UNL1     0.2922
     47 H         0.511843   0.355642   2.264672 H        1 UNL1     0.2126
     48 H         1.198525   -1.878956   -0.302623 H        1 UNL1     0.2101
     49 H         -2.019467   0.941671   -0.903961 H        1 UNL1     0.2100
     50 H         -2.6887   -3.327718   -1.16604 H        1 UNL1     0.2102
@<TRIPOS>BOND
     1     1     2    1
     2     1     6    1
     3     2     3    1
     4     3     4    1
     5     3    29    1
     6     3    33    1
     7     4     5    1
     8     5     6    1
     9     5     7    1
    10     5    35    1
    11     7     8    1
    12     8     9   ar
    13     8    13   ar
    14     9    10   ar
    15     9    36    1
    16    10    11   ar
    17    10    26    1
    18    11    12   ar
    19    11    14    1
    20    12    13   ar
    21    12    17    1
    22    13    37    1
    23    14    15    1
    24    14    25    2
    25    15    16    1
    26    15    38    1
    27    15    39    1
    28    16    17    1
    29    16    18    1
    30    16    40    1
    31    18    19   ar
    32    18    23   ar
    33    19    20   ar
    34    19    41    1
    35    20    21   ar
    36    20    42    1
    37    21    22   ar
    38    21    24    1
    39    22    23   ar
    40    22    43    1
    41    23    44    1
    42    24    45    1
    43    26    46    1
    44    27    47    1
    45    28    48    1
    46    29    49    1
    47    30    50    1
    48     1    31    1
    49     1    27    1
    50     2    32    1
    51     2    28    1
    52     4    34    1
    53     4    30    1
