@<TRIPOS>MOLECULE
*****
 50 53 0 0 0
SMALL
GASTEIGER

@<TRIPOS>ATOM
     1 C         0.909342   1.834386   -0.760875 C.3        1 UNL1     0.1889
     2 C         0.396731   0.381206   -0.94913 C.3        1 UNL1     0.1342
     3 C         1.446058   -0.604474   -1.485611 C.3        1 UNL1     0.1174
     4 C         2.416856   0.043092   -2.47623 C.3        1 UNL1     0.1456
     5 C         2.956213   1.39545   -1.975647 C.3        1 UNL1     0.2326
     6 O         1.872041   2.280821   -1.704433 O.3        1 UNL1     -0.3076
     7 O         3.876285   1.273906   -0.87564 O.3        1 UNL1     -0.4605
     8 C         4.291292   2.460583   -0.298495 C.ar        1 UNL1     0.1310
     9 C         4.834048   3.550503   -0.987545 C.ar        1 UNL1     0.0226
     10 C         5.209488   4.71867   -0.313502 C.ar        1 UNL1     0.1343
     11 C         5.028997   4.834309   1.064138 C.ar        1 UNL1     0.1007
     12 C         4.526089   3.737391   1.768864 C.ar        1 UNL1     0.1389
     13 C         4.151123   2.561945   1.091252 C.ar        1 UNL1     0.0229
     14 C         5.330047   6.075539   1.814384 C.2        1 UNL1     0.1740
     15 C         4.868532   6.099429   3.241963 C.3        1 UNL1     0.0520
     16 C         5.128115   4.7303   3.8552 C.3        1 UNL1     0.1322
     17 O         4.408199   3.70278   3.138963 O.3        1 UNL1     -0.4828
     18 C         6.611474   4.426715   4.079265 C.ar        1 UNL1     -0.0067
     19 C         7.211836   3.356236   3.385109 C.ar        1 UNL1     -0.0516
     20 C         8.553861   3.021906   3.602263 C.ar        1 UNL1     -0.0198
     21 C         9.302481   3.744061   4.514342 C.ar        1 UNL1     0.1169
     22 C         8.748748   4.824663   5.188522 C.ar        1 UNL1     -0.0198
     23 C         7.411937   5.170794   4.957901 C.ar        1 UNL1     -0.0516
     24 O         10.595419   3.365507   4.727431 O.3        1 UNL1     -0.5068
     25 O         5.849243   7.064821   1.304245 O.2        1 UNL1     -0.2917
     26 O         5.733756   5.74502   -1.0438 O.3        1 UNL1     -0.5058
     27 O         1.30569   2.126144   0.569754 O.3        1 UNL1     -0.3648
     28 O         -0.693308   0.400275   -1.889426 O.3        1 UNL1     -0.3841
     29 O         2.113421   -1.269248   -0.410978 O.3        1 UNL1     -0.3863
     30 O         1.740632   0.250515   -3.735352 O.3        1 UNL1     -0.3829
     31 H         0.052555   2.493714   -0.937739 H        1 UNL1     0.0937
     32 H         0.0   -0.0   0.0 H        1 UNL1     0.0671
     33 H         0.914328   -1.395471   -2.0327 H        1 UNL1     0.0649
     34 H         3.257643   -0.631759   -2.671302 H        1 UNL1     0.0683
     35 H         3.492175   1.803438   -2.84177 H        1 UNL1     0.1085
     36 H         4.947735   3.543996   -2.066041 H        1 UNL1     0.0691
     37 H         3.763159   1.721702   1.663063 H        1 UNL1     0.0691
     38 H         3.798962   6.335109   3.240344 H        1 UNL1     0.0385
     39 H         5.394069   6.898584   3.77576 H        1 UNL1     0.0385
     40 H         4.677632   4.733632   4.856985 H        1 UNL1     0.0789
     41 H         6.643021   2.768212   2.670736 H        1 UNL1     0.0623
     42 H         9.002045   2.186774   3.06963 H        1 UNL1     0.0654
     43 H         9.330236   5.40638   5.893779 H        1 UNL1     0.0654
     44 H         7.014937   6.027362   5.494116 H        1 UNL1     0.0623
     45 H         11.169355   4.132981   4.571552 H        1 UNL1     0.2921
     46 H         6.671175   5.56936   -1.222132 H        1 UNL1     0.2922
     47 H         0.601849   1.886954   1.18883 H        1 UNL1     0.2126
     48 H         -1.468118   0.026646   -1.427037 H        1 UNL1     0.2101
     49 H         2.214608   -2.21193   -0.618119 H        1 UNL1     0.2100
     50 H         1.985174   1.139649   -4.066036 H        1 UNL1     0.2102
@<TRIPOS>BOND
     1     1     2    1
     2     1     6    1
     3     2     3    1
     4     3     4    1
     5     3    29    1
     6     3    33    1
     7     4     5    1
     8     5     6    1
     9     5     7    1
    10     5    35    1
    11     7     8    1
    12     8     9   ar
    13     8    13   ar
    14     9    10   ar
    15     9    36    1
    16    10    11   ar
    17    10    26    1
    18    11    12   ar
    19    11    14    1
    20    12    13   ar
    21    12    17    1
    22    13    37    1
    23    14    15    1
    24    14    25    2
    25    15    16    1
    26    15    38    1
    27    15    39    1
    28    16    17    1
    29    16    18    1
    30    16    40    1
    31    18    19   ar
    32    18    23   ar
    33    19    20   ar
    34    19    41    1
    35    20    21   ar
    36    20    42    1
    37    21    22   ar
    38    21    24    1
    39    22    23   ar
    40    22    43    1
    41    23    44    1
    42    24    45    1
    43    26    46    1
    44    27    47    1
    45    28    48    1
    46    29    49    1
    47    30    50    1
    48     1    31    1
    49     1    27    1
    50     2    32    1
    51     2    28    1
    52     4    34    1
    53     4    30    1
