@<TRIPOS>MOLECULE
*****
 50 53 0 0 0
SMALL
GASTEIGER

@<TRIPOS>ATOM
     1 C         -0.01018   -1.18265   1.836311 C.3        1 UNL1     0.1889
     2 C         -0.280858   -1.011944   0.317255 C.3        1 UNL1     0.1342
     3 C         -1.730586   -1.286989   -0.110651 C.3        1 UNL1     0.1174
     4 C         -2.388964   -2.402006   0.705679 C.3        1 UNL1     0.1456
     5 C         -2.150976   -2.245109   2.218659 C.3        1 UNL1     0.2326
     6 O         -0.751649   -2.202893   2.488787 O.3        1 UNL1     -0.3076
     7 O         -2.873231   -1.145125   2.8015 O.3        1 UNL1     -0.4605
     8 C         -3.278968   -1.3134   4.113212 C.ar        1 UNL1     0.1310
     9 C         -3.880641   -2.464056   4.63406 C.ar        1 UNL1     0.0226
     10 C         -4.241131   -2.544266   5.984436 C.ar        1 UNL1     0.1343
     11 C         -3.986728   -1.483622   6.852856 C.ar        1 UNL1     0.1007
     12 C         -3.423826   -0.313828   6.335646 C.ar        1 UNL1     0.1389
     13 C         -3.063863   -0.232437   4.977253 C.ar        1 UNL1     0.0229
     14 C         -4.270174   -1.546358   8.305398 C.2        1 UNL1     0.1740
     15 C         -3.730645   -0.408928   9.121921 C.3        1 UNL1     0.0520
     16 C         -3.928596   0.882124   8.339644 C.3        1 UNL1     0.1322
     17 O         -3.229359   0.828731   7.076597 O.3        1 UNL1     -0.4828
     18 C         -5.390915   1.322375   8.237054 C.ar        1 UNL1     -0.0067
     19 C         -5.750571   2.318554   7.306199 C.ar        1 UNL1     -0.0516
     20 C         -7.070228   2.777852   7.219517 C.ar        1 UNL1     -0.0198
     21 C         -8.035797   2.255392   8.061265 C.ar        1 UNL1     0.1169
     22 C         -7.719272   1.249645   8.965213 C.ar        1 UNL1     -0.0198
     23 C         -6.403505   0.777085   9.039373 C.ar        1 UNL1     -0.0516
     24 O         -9.302304   2.754144   7.974037 O.3        1 UNL1     -0.5068
     25 O         -4.836396   -2.494185   8.843451 O.2        1 UNL1     -0.2917
     26 O         -4.825379   -3.694212   6.429255 O.3        1 UNL1     -0.5058
     27 O         -0.050998   0.037829   2.558496 O.3        1 UNL1     -0.3648
     28 O         0.560167   -1.932685   -0.402202 O.3        1 UNL1     -0.3841
     29 O         -2.495306   -0.079801   -0.116289 O.3        1 UNL1     -0.3863
     30 O         -1.857604   -3.676302   0.281987 O.3        1 UNL1     -0.3829
     31 H         1.027955   -1.518743   1.93325 H        1 UNL1     0.0937
     32 H         0.0   0.0   0.0 H        1 UNL1     0.0671
     33 H         -1.713127   -1.626195   -1.155808 H        1 UNL1     0.0649
     34 H         -3.466655   -2.422827   0.509338 H        1 UNL1     0.0683
     35 H         -2.529912   -3.182561   2.644652 H        1 UNL1     0.1085
     36 H         -4.053901   -3.343253   4.023229 H        1 UNL1     0.0691
     37 H         -2.62817   0.689852   4.599035 H        1 UNL1     0.0691
     38 H         -2.667696   -0.603923   9.299801 H        1 UNL1     0.0385
     39 H         -4.241452   -0.388541   10.090652 H        1 UNL1     0.0385
     40 H         -3.423322   1.680637   8.899639 H        1 UNL1     0.0789
     41 H         -5.009261   2.751132   6.640627 H        1 UNL1     0.0623
     42 H         -7.332619   3.554878   6.505799 H        1 UNL1     0.0654
     43 H         -8.47076   0.822851   9.618684 H        1 UNL1     0.0654
     44 H         -6.193986   -0.016839   9.749746 H        1 UNL1     0.0623
     45 H         -9.284835   3.685264   8.24868 H        1 UNL1     0.2921
     46 H         -4.319865   -4.044635   7.179635 H        1 UNL1     0.2922
     47 H         0.557024   0.6797   2.16585 H        1 UNL1     0.2126
     48 H         1.47073   -1.584726   -0.342769 H        1 UNL1     0.2101
     49 H         -2.330545   0.411396   -0.936882 H        1 UNL1     0.2100
     50 H         -2.160708   -3.839442   -0.635197 H        1 UNL1     0.2102
@<TRIPOS>BOND
     1     1     2    1
     2     1     6    1
     3     2     3    1
     4     3     4    1
     5     3    29    1
     6     3    33    1
     7     4     5    1
     8     5     6    1
     9     5     7    1
    10     5    35    1
    11     7     8    1
    12     8     9   ar
    13     8    13   ar
    14     9    10   ar
    15     9    36    1
    16    10    11   ar
    17    10    26    1
    18    11    12   ar
    19    11    14    1
    20    12    13   ar
    21    12    17    1
    22    13    37    1
    23    14    15    1
    24    14    25    2
    25    15    16    1
    26    15    38    1
    27    15    39    1
    28    16    17    1
    29    16    18    1
    30    16    40    1
    31    18    19   ar
    32    18    23   ar
    33    19    20   ar
    34    19    41    1
    35    20    21   ar
    36    20    42    1
    37    21    22   ar
    38    21    24    1
    39    22    23   ar
    40    22    43    1
    41    23    44    1
    42    24    45    1
    43    26    46    1
    44    27    47    1
    45    28    48    1
    46    29    49    1
    47    30    50    1
    48     1    31    1
    49     1    27    1
    50     2    32    1
    51     2    28    1
    52     4    34    1
    53     4    30    1
