@<TRIPOS>MOLECULE
*****
 50 53 0 0 0
SMALL
GASTEIGER

@<TRIPOS>ATOM
     1 C         -0.394265   -1.376506   1.649422 C.3        1 UNL1     0.1889
     2 C         -0.492799   -0.967821   0.155029 C.3        1 UNL1     0.1342
     3 C         -1.924814   -0.895076   -0.396792 C.3        1 UNL1     0.1174
     4 C         -2.850359   -1.950547   0.213506 C.3        1 UNL1     0.1456
     5 C         -2.721746   -2.033484   1.74548 C.3        1 UNL1     0.2326
     6 O         -1.36882   -2.302984   2.105794 O.3        1 UNL1     -0.3076
     7 O         -3.273204   -0.893633   2.429552 O.3        1 UNL1     -0.4605
     8 C         -3.817585   -1.14028   3.677087 C.ar        1 UNL1     0.1310
     9 C         -4.673783   -2.200873   3.992316 C.ar        1 UNL1     0.0226
     10 C         -5.160326   -2.376113   5.293265 C.ar        1 UNL1     0.1343
     11 C         -4.783069   -1.507881   6.316833 C.ar        1 UNL1     0.1007
     12 C         -3.961377   -0.421279   6.005542 C.ar        1 UNL1     0.1389
     13 C         -3.474416   -0.243772   4.696806 C.ar        1 UNL1     0.0229
     14 C         -5.199932   -1.694745   7.725897 C.2        1 UNL1     0.1740
     15 C         -4.524646   -0.80341   8.726427 C.3        1 UNL1     0.0520
     16 C         -4.399694   0.589223   8.124 C.3        1 UNL1     0.1322
     17 O         -3.615641   0.554791   6.911092 O.3        1 UNL1     -0.4828
     18 C         -5.734522   1.327134   7.995759 C.ar        1 UNL1     -0.0067
     19 C         -5.741019   2.687233   7.623869 C.ar        1 UNL1     -0.0516
     20 C         -6.940786   3.404211   7.543471 C.ar        1 UNL1     -0.0198
     21 C         -8.137318   2.775861   7.838964 C.ar        1 UNL1     0.1169
     22 C         -8.166407   1.428774   8.175637 C.ar        1 UNL1     -0.0198
     23 C         -6.968541   0.706789   8.238171 C.ar        1 UNL1     -0.0516
     24 O         -9.281808   3.516002   7.786668 O.3        1 UNL1     -0.5068
     25 O         -5.983792   -2.567801   8.088972 O.2        1 UNL1     -0.2917
     26 O         -5.992672   -3.42995   5.534535 O.3        1 UNL1     -0.5058
     27 O         -0.268804   -0.271698   2.530584 O.3        1 UNL1     -0.3648
     28 O         0.220571   -1.93989   -0.631667 O.3        1 UNL1     -0.3841
     29 O         -2.445694   0.430686   -0.282023 O.3        1 UNL1     -0.3863
     30 O         -2.532433   -3.24192   -0.349495 O.3        1 UNL1     -0.3829
     31 H         0.549591   -1.920789   1.763305 H        1 UNL1     0.0937
     32 H         0.0   0.0   0.0 H        1 UNL1     0.0671
     33 H         -1.879103   -1.098197   -1.475853 H        1 UNL1     0.0649
     34 H         -3.891152   -1.73308   -0.0508 H        1 UNL1     0.0683
     35 H         -3.306106   -2.923008   2.012218 H        1 UNL1     0.1085
     36 H         -4.959328   -2.94201   3.253872 H        1 UNL1     0.0691
     37 H         -2.837104   0.61084   4.480091 H        1 UNL1     0.0691
     38 H         -3.539287   -1.231471   8.939401 H        1 UNL1     0.0385
     39 H         -5.105061   -0.802155   9.655348 H        1 UNL1     0.0385
     40 H         -3.800836   1.190903   8.821043 H        1 UNL1     0.0789
     41 H         -4.814242   3.205641   7.395859 H        1 UNL1     0.0623
     42 H         -6.931561   4.455667   7.267128 H        1 UNL1     0.0654
     43 H         -9.099291   0.923005   8.394351 H        1 UNL1     0.0654
     44 H         -7.029478   -0.346588   8.494157 H        1 UNL1     0.0623
     45 H         -9.043297   4.454766   7.854128 H        1 UNL1     0.2921
     46 H         -5.790855   -3.809012   6.404589 H        1 UNL1     0.2922
     47 H         -0.357032   -0.563891   3.448571 H        1 UNL1     0.2126
     48 H         1.17141   -1.788993   -0.467751 H        1 UNL1     0.2101
     49 H         -3.003162   0.498866   0.509415 H        1 UNL1     0.2100
     50 H         -2.778548   -3.226353   -1.297597 H        1 UNL1     0.2102
@<TRIPOS>BOND
     1     1     2    1
     2     1     6    1
     3     2     3    1
     4     3     4    1
     5     3    29    1
     6     3    33    1
     7     4     5    1
     8     5     6    1
     9     5     7    1
    10     5    35    1
    11     7     8    1
    12     8     9   ar
    13     8    13   ar
    14     9    10   ar
    15     9    36    1
    16    10    11   ar
    17    10    26    1
    18    11    12   ar
    19    11    14    1
    20    12    13   ar
    21    12    17    1
    22    13    37    1
    23    14    15    1
    24    14    25    2
    25    15    16    1
    26    15    38    1
    27    15    39    1
    28    16    17    1
    29    16    18    1
    30    16    40    1
    31    18    19   ar
    32    18    23   ar
    33    19    20   ar
    34    19    41    1
    35    20    21   ar
    36    20    42    1
    37    21    22   ar
    38    21    24    1
    39    22    23   ar
    40    22    43    1
    41    23    44    1
    42    24    45    1
    43    26    46    1
    44    27    47    1
    45    28    48    1
    46    29    49    1
    47    30    50    1
    48     1    31    1
    49     1    27    1
    50     2    32    1
    51     2    28    1
    52     4    34    1
    53     4    30    1
