@<TRIPOS>MOLECULE
*****
 50 53 0 0 0
SMALL
GASTEIGER

@<TRIPOS>ATOM
     1 C         -0.340372   -1.340452   1.690604 C.3        1 UNL1     0.1889
     2 C         -0.467906   -0.974432   0.187372 C.3        1 UNL1     0.1342
     3 C         -1.908295   -0.949626   -0.346605 C.3        1 UNL1     0.1174
     4 C         -2.80081   -2.009422   0.304062 C.3        1 UNL1     0.1456
     5 C         -2.650358   -2.048194   1.835801 C.3        1 UNL1     0.2326
     6 O         -1.286907   -2.276601   2.184658 O.3        1 UNL1     -0.3076
     7 O         -3.219445   -0.903423   2.496832 O.3        1 UNL1     -0.4605
     8 C         -3.731411   -1.126575   3.762384 C.ar        1 UNL1     0.1310
     9 C         -4.553986   -2.198091   4.126422 C.ar        1 UNL1     0.0226
     10 C         -5.008827   -2.346902   5.44205 C.ar        1 UNL1     0.1343
     11 C         -4.632276   -1.440007   6.431795 C.ar        1 UNL1     0.1007
     12 C         -3.844759   -0.34323   6.071684 C.ar        1 UNL1     0.1389
     13 C         -3.38972   -0.192372   4.748199 C.ar        1 UNL1     0.0229
     14 C         -5.014935   -1.595553   7.854304 C.2        1 UNL1     0.1740
     15 C         -4.341572   -0.658955   8.813947 C.3        1 UNL1     0.0520
     16 C         -4.264157   0.718024   8.16905 C.3        1 UNL1     0.1322
     17 O         -3.504873   0.667185   6.941055 O.3        1 UNL1     -0.4828
     18 C         -5.619458   1.418957   8.048321 C.ar        1 UNL1     -0.0067
     19 C         -5.986873   2.009539   6.821768 C.ar        1 UNL1     -0.0516
     20 C         -7.198168   2.699178   6.690899 C.ar        1 UNL1     -0.0198
     21 C         -8.04545   2.811331   7.778723 C.ar        1 UNL1     0.1169
     22 C         -7.72675   2.211886   8.990306 C.ar        1 UNL1     -0.0198
     23 C         -6.524033   1.506433   9.116257 C.ar        1 UNL1     -0.0516
     24 O         -9.198899   3.522706   7.624119 O.3        1 UNL1     -0.5068
     25 O         -5.768922   -2.476494   8.25919 O.2        1 UNL1     -0.2917
     26 O         -5.80927   -3.413256   5.731469 O.3        1 UNL1     -0.5058
     27 O         -0.229396   -0.209776   2.540335 O.3        1 UNL1     -0.3648
     28 O         0.257764   -1.950542   -0.582899 O.3        1 UNL1     -0.3841
     29 O         -2.458585   0.366356   -0.259975 O.3        1 UNL1     -0.3863
     30 O         -2.460041   -3.307761   -0.228744 O.3        1 UNL1     -0.3829
     31 H         0.617392   -1.859536   1.806012 H        1 UNL1     0.0937
     32 H         0.0   0.0   0.0 H        1 UNL1     0.0671
     33 H         -1.871882   -1.180543   -1.420416 H        1 UNL1     0.0649
     34 H         -3.849769   -1.823227   0.048295 H        1 UNL1     0.0683
     35 H         -3.210174   -2.943493   2.134002 H        1 UNL1     0.1085
     36 H         -4.836135   -2.967364   3.415978 H        1 UNL1     0.0691
     37 H         -2.778697   0.67085   4.493263 H        1 UNL1     0.0691
     38 H         -3.341567   -1.056329   9.017934 H        1 UNL1     0.0385
     39 H         -4.902398   -0.644624   9.754716 H        1 UNL1     0.0385
     40 H         -3.666223   1.354396   8.835403 H        1 UNL1     0.0789
     41 H         -5.334969   1.943403   5.955571 H        1 UNL1     0.0623
     42 H         -7.464736   3.160432   5.743165 H        1 UNL1     0.0654
     43 H         -8.389956   2.280707   9.844316 H        1 UNL1     0.0654
     44 H         -6.311991   1.041712   10.074337 H        1 UNL1     0.0623
     45 H         -8.966873   4.436645   7.39261 H        1 UNL1     0.2921
     46 H         -5.409514   -3.933202   6.446495 H        1 UNL1     0.2922
     47 H         0.514256   0.344304   2.264951 H        1 UNL1     0.2126
     48 H         1.193656   -1.880376   -0.312872 H        1 UNL1     0.2101
     49 H         -2.02197   0.9495   -0.901149 H        1 UNL1     0.2100
     50 H         -2.697974   -3.315614   -1.179028 H        1 UNL1     0.2102
@<TRIPOS>BOND
     1     1     2    1
     2     1     6    1
     3     2     3    1
     4     3     4    1
     5     3    29    1
     6     3    33    1
     7     4     5    1
     8     5     6    1
     9     5     7    1
    10     5    35    1
    11     7     8    1
    12     8     9   ar
    13     8    13   ar
    14     9    10   ar
    15     9    36    1
    16    10    11   ar
    17    10    26    1
    18    11    12   ar
    19    11    14    1
    20    12    13   ar
    21    12    17    1
    22    13    37    1
    23    14    15    1
    24    14    25    2
    25    15    16    1
    26    15    38    1
    27    15    39    1
    28    16    17    1
    29    16    18    1
    30    16    40    1
    31    18    19   ar
    32    18    23   ar
    33    19    20   ar
    34    19    41    1
    35    20    21   ar
    36    20    42    1
    37    21    22   ar
    38    21    24    1
    39    22    23   ar
    40    22    43    1
    41    23    44    1
    42    24    45    1
    43    26    46    1
    44    27    47    1
    45    28    48    1
    46    29    49    1
    47    30    50    1
    48     1    31    1
    49     1    27    1
    50     2    32    1
    51     2    28    1
    52     4    34    1
    53     4    30    1
