@<TRIPOS>MOLECULE
*****
 50 53 0 0 0
SMALL
GASTEIGER

@<TRIPOS>ATOM
     1 C         -0.506598   -1.190777   1.759606 C.3        1 UNL1     0.1889
     2 C         -0.505552   -0.946935   0.226478 C.3        1 UNL1     0.1342
     3 C         -1.898089   -0.939263   -0.422557 C.3        1 UNL1     0.1174
     4 C         -2.865589   -1.925393   0.236691 C.3        1 UNL1     0.1456
     5 C         -2.837847   -1.841233   1.773737 C.3        1 UNL1     0.2326
     6 O         -1.512438   -2.065537   2.24897 O.3        1 UNL1     -0.3076
     7 O         -3.428578   -0.635754   2.292561 O.3        1 UNL1     -0.4605
     8 C         -4.044525   -0.744851   3.52635 C.ar        1 UNL1     0.1310
     9 C         -4.919938   -1.767459   3.907436 C.ar        1 UNL1     0.0226
     10 C         -5.481055   -1.799432   5.189632 C.ar        1 UNL1     0.1343
     11 C         -5.161391   -0.821588   6.13063 C.ar        1 UNL1     0.1007
     12 C         -4.320593   0.227165   5.748582 C.ar        1 UNL1     0.1389
     13 C         -3.758604   0.26053   4.458433 C.ar        1 UNL1     0.0229
     14 C         -5.659202   -0.85285   7.525392 C.2        1 UNL1     0.1740
     15 C         -5.040623   0.146616   8.458117 C.3        1 UNL1     0.0520
     16 C         -4.877914   1.46441   7.713199 C.3        1 UNL1     0.1322
     17 O         -4.025345   1.298974   6.558718 O.3        1 UNL1     -0.4828
     18 C         -6.201407   2.178118   7.427353 C.ar        1 UNL1     -0.0067
     19 C         -6.461985   2.659686   6.127966 C.ar        1 UNL1     -0.0516
     20 C         -7.641472   3.35833   5.843939 C.ar        1 UNL1     -0.0198
     21 C         -8.562845   3.587781   6.850045 C.ar        1 UNL1     0.1169
     22 C         -8.349976   3.096978   8.131699 C.ar        1 UNL1     -0.0198
     23 C         -7.179105   2.382308   8.411634 C.ar        1 UNL1     -0.0516
     24 O         -9.68234   4.304705   6.544835 O.3        1 UNL1     -0.5068
     25 O         -6.464717   -1.68348   7.937319 O.2        1 UNL1     -0.2917
     26 O         -6.328377   -2.823426   5.497961 O.3        1 UNL1     -0.5058
     27 O         -0.4349   0.003506   2.522059 O.3        1 UNL1     -0.3648
     28 O         0.254095   -1.996214   -0.401738 O.3        1 UNL1     -0.3841
     29 O         -2.420339   0.389377   -0.48661 O.3        1 UNL1     -0.3863
     30 O         -2.516387   -3.269146   -0.160896 O.3        1 UNL1     -0.3829
     31 H         0.425711   -1.716338   1.993409 H        1 UNL1     0.0937
     32 H         0.0   0.0   0.0 H        1 UNL1     0.0671
     33 H         -1.782614   -1.25808   -1.4679 H        1 UNL1     0.0649
     34 H         -3.886019   -1.741358   -0.117224 H        1 UNL1     0.0683
     35 H         -3.441779   -2.698523   2.096536 H        1 UNL1     0.1085
     36 H         -5.164179   -2.587022   3.240515 H        1 UNL1     0.0691
     37 H         -3.107871   1.088453   4.185334 H        1 UNL1     0.0691
     38 H         -4.070177   -0.251187   8.773574 H        1 UNL1     0.0385
     39 H         -5.673604   0.248439   9.34623 H        1 UNL1     0.0385
     40 H         -4.318821   2.142065   8.372531 H        1 UNL1     0.0789
     41 H         -5.750393   2.5005   5.323015 H        1 UNL1     0.0623
     42 H         -7.82541   3.734981   4.840787 H        1 UNL1     0.0654
     43 H         -9.07187   3.257934   8.923452 H        1 UNL1     0.0654
     44 H         -7.050378   2.004255   9.421263 H        1 UNL1     0.0623
     45 H         -9.409381   5.187484   6.246653 H        1 UNL1     0.2921
     46 H         -5.999623   -3.290326   6.282395 H        1 UNL1     0.2922
     47 H         0.342629   0.518582   2.265145 H        1 UNL1     0.2126
     48 H         1.167148   -1.921528   -0.063374 H        1 UNL1     0.2101
     49 H         -1.91456   0.912162   -1.12901 H        1 UNL1     0.2100
     50 H         -2.678492   -3.350469   -1.123611 H        1 UNL1     0.2102
@<TRIPOS>BOND
     1     1     2    1
     2     1     6    1
     3     2     3    1
     4     3     4    1
     5     3    29    1
     6     3    33    1
     7     4     5    1
     8     5     6    1
     9     5     7    1
    10     5    35    1
    11     7     8    1
    12     8     9   ar
    13     8    13   ar
    14     9    10   ar
    15     9    36    1
    16    10    11   ar
    17    10    26    1
    18    11    12   ar
    19    11    14    1
    20    12    13   ar
    21    12    17    1
    22    13    37    1
    23    14    15    1
    24    14    25    2
    25    15    16    1
    26    15    38    1
    27    15    39    1
    28    16    17    1
    29    16    18    1
    30    16    40    1
    31    18    19   ar
    32    18    23   ar
    33    19    20   ar
    34    19    41    1
    35    20    21   ar
    36    20    42    1
    37    21    22   ar
    38    21    24    1
    39    22    23   ar
    40    22    43    1
    41    23    44    1
    42    24    45    1
    43    26    46    1
    44    27    47    1
    45    28    48    1
    46    29    49    1
    47    30    50    1
    48     1    31    1
    49     1    27    1
    50     2    32    1
    51     2    28    1
    52     4    34    1
    53     4    30    1
