@<TRIPOS>MOLECULE
*****
 50 53 0 0 0
SMALL
GASTEIGER

@<TRIPOS>ATOM
     1 C         -0.331879   -1.328013   1.70207 C.3        1 UNL1     0.1889
     2 C         -0.462349   -0.975409   0.195887 C.3        1 UNL1     0.1342
     3 C         -1.903171   -0.963143   -0.337355 C.3        1 UNL1     0.1174
     4 C         -2.78937   -2.02237   0.322802 C.3        1 UNL1     0.1456
     5 C         -2.637792   -2.047373   1.854717 C.3        1 UNL1     0.2326
     6 O         -1.272881   -2.265223   2.204612 O.3        1 UNL1     -0.3076
     7 O         -3.212866   -0.900256   2.506432 O.3        1 UNL1     -0.4605
     8 C         -3.7224   -1.115464   3.774339 C.ar        1 UNL1     0.1310
     9 C         -4.538465   -2.188524   4.148346 C.ar        1 UNL1     0.0226
     10 C         -4.991257   -2.328637   5.465635 C.ar        1 UNL1     0.1343
     11 C         -4.619045   -1.411121   6.447196 C.ar        1 UNL1     0.1007
     12 C         -3.83818   -0.312969   6.076933 C.ar        1 UNL1     0.1389
     13 C         -3.385207   -0.170876   4.751771 C.ar        1 UNL1     0.0229
     14 C         -4.999522   -1.556635   7.871351 C.2        1 UNL1     0.1740
     15 C         -4.330699   -0.607969   8.822276 C.3        1 UNL1     0.0520
     16 C         -4.261794   0.76384   8.165505 C.3        1 UNL1     0.1322
     17 O         -3.503334   0.706817   6.937272 O.3        1 UNL1     -0.4828
     18 C         -5.621216   1.455906   8.040047 C.ar        1 UNL1     -0.0067
     19 C         -6.000576   2.018286   6.803912 C.ar        1 UNL1     -0.0516
     20 C         -7.216021   2.69949   6.667465 C.ar        1 UNL1     -0.0198
     21 C         -8.055628   2.831223   7.759038 C.ar        1 UNL1     0.1169
     22 C         -7.725053   2.25944   8.980768 C.ar        1 UNL1     -0.0198
     23 C         -6.518148   1.562282   9.112704 C.ar        1 UNL1     -0.0516
     24 O         -9.213509   3.533907   7.597955 O.3        1 UNL1     -0.5068
     25 O         -5.74806   -2.438384   8.284504 O.2        1 UNL1     -0.2917
     26 O         -5.785288   -3.397049   5.764959 O.3        1 UNL1     -0.5058
     27 O         -0.226709   -0.189605   2.542162 O.3        1 UNL1     -0.3648
     28 O         0.268299   -1.953924   -0.566588 O.3        1 UNL1     -0.3841
     29 O         -2.460746   0.350434   -0.261478 O.3        1 UNL1     -0.3863
     30 O         -2.441678   -3.323239   -0.199251 O.3        1 UNL1     -0.3829
     31 H         0.628836   -1.840756   1.821238 H        1 UNL1     0.0937
     32 H         0.0   0.0   0.0 H        1 UNL1     0.0671
     33 H         -1.866109   -1.202908   -1.409204 H        1 UNL1     0.0649
     34 H         -3.839504   -1.844192   0.066148 H        1 UNL1     0.0683
     35 H         -3.192425   -2.943232   2.16082 H        1 UNL1     0.1085
     36 H         -4.816819   -2.965483   3.444802 H        1 UNL1     0.0691
     37 H         -2.779393   0.693622   4.488851 H        1 UNL1     0.0691
     38 H         -3.32824   -0.99782   9.02872 H        1 UNL1     0.0385
     39 H         -4.890752   -0.588779   9.76342 H        1 UNL1     0.0385
     40 H         -3.666935   1.409342   8.825801 H        1 UNL1     0.0789
     41 H         -5.35489   1.936451   5.934405 H        1 UNL1     0.0623
     42 H         -7.491842   3.139028   5.71209 H        1 UNL1     0.0654
     43 H         -8.382143   2.343647   9.838119 H        1 UNL1     0.0654
     44 H         -6.296757   1.119254   10.078911 H        1 UNL1     0.0623
     45 H         -8.987722   4.441432   7.336927 H        1 UNL1     0.2921
     46 H         -5.381211   -3.909302   6.483103 H        1 UNL1     0.2922
     47 H         0.516218   0.364153   2.264184 H        1 UNL1     0.2126
     48 H         1.201206   -1.887942   -0.285405 H        1 UNL1     0.2101
     49 H         -2.021927   0.932713   -0.901933 H        1 UNL1     0.2100
     50 H         -2.67491   -3.338511   -1.150609 H        1 UNL1     0.2102
@<TRIPOS>BOND
     1     1     2    1
     2     1     6    1
     3     2     3    1
     4     3     4    1
     5     3    29    1
     6     3    33    1
     7     4     5    1
     8     5     6    1
     9     5     7    1
    10     5    35    1
    11     7     8    1
    12     8     9   ar
    13     8    13   ar
    14     9    10   ar
    15     9    36    1
    16    10    11   ar
    17    10    26    1
    18    11    12   ar
    19    11    14    1
    20    12    13   ar
    21    12    17    1
    22    13    37    1
    23    14    15    1
    24    14    25    2
    25    15    16    1
    26    15    38    1
    27    15    39    1
    28    16    17    1
    29    16    18    1
    30    16    40    1
    31    18    19   ar
    32    18    23   ar
    33    19    20   ar
    34    19    41    1
    35    20    21   ar
    36    20    42    1
    37    21    22   ar
    38    21    24    1
    39    22    23   ar
    40    22    43    1
    41    23    44    1
    42    24    45    1
    43    26    46    1
    44    27    47    1
    45    28    48    1
    46    29    49    1
    47    30    50    1
    48     1    31    1
    49     1    27    1
    50     2    32    1
    51     2    28    1
    52     4    34    1
    53     4    30    1
