@<TRIPOS>MOLECULE
*****
 50 53 0 0 0
SMALL
GASTEIGER

@<TRIPOS>ATOM
     1 C         0.885755   -1.699265   -1.048209 C.3        1 UNL1     0.1889
     2 C         -0.261115   -0.677712   -0.822245 C.3        1 UNL1     0.1342
     3 C         -1.63328   -1.306955   -0.536448 C.3        1 UNL1     0.1174
     4 C         -1.85689   -2.614988   -1.299446 C.3        1 UNL1     0.1456
     5 C         -0.648189   -3.564423   -1.210124 C.3        1 UNL1     0.2326
     6 O         0.521389   -2.909353   -1.695757 O.3        1 UNL1     -0.3076
     7 O         -0.470842   -4.145422   0.094601 O.3        1 UNL1     -0.4605
     8 C         0.234392   -5.334667   0.137863 C.ar        1 UNL1     0.1310
     9 C         0.041369   -6.422908   -0.71991 C.ar        1 UNL1     0.0226
     10 C         0.820204   -7.580709   -0.606707 C.ar        1 UNL1     0.1343
     11 C         1.828003   -7.669152   0.352646 C.ar        1 UNL1     0.1007
     12 C         2.002816   -6.605111   1.241489 C.ar        1 UNL1     0.1389
     13 C         1.217805   -5.44211   1.129162 C.ar        1 UNL1     0.0229
     14 C         2.735701   -8.834605   0.462004 C.2        1 UNL1     0.1740
     15 C         3.897692   -8.667131   1.396498 C.3        1 UNL1     0.0520
     16 C         3.415003   -7.930219   2.638242 C.3        1 UNL1     0.1322
     17 O         2.891346   -6.629251   2.291345 O.3        1 UNL1     -0.4828
     18 C         2.496128   -8.766042   3.532553 C.ar        1 UNL1     -0.0067
     19 C         2.911162   -9.09127   4.840295 C.ar        1 UNL1     -0.0516
     20 C         2.116175   -9.893468   5.667601 C.ar        1 UNL1     -0.0198
     21 C         0.910188   -10.381614   5.197349 C.ar        1 UNL1     0.1169
     22 C         0.458901   -10.051168   3.926136 C.ar        1 UNL1     -0.0198
     23 C         1.245127   -9.233814   3.10526 C.ar        1 UNL1     -0.0516
     24 O         0.180682   -11.190828   6.017955 O.3        1 UNL1     -0.5068
     25 O         2.614611   -9.851817   -0.215566 O.2        1 UNL1     -0.2917
     26 O         0.580835   -8.606858   -1.473486 O.3        1 UNL1     -0.5058
     27 O         1.664877   -1.940471   0.112642 O.3        1 UNL1     -0.3648
     28 O         -0.397021   0.125425   -2.009346 O.3        1 UNL1     -0.3841
     29 O         -1.84542   -1.443513   0.870137 O.3        1 UNL1     -0.3863
     30 O         -2.10995   -2.31535   -2.689363 O.3        1 UNL1     -0.3829
     31 H         1.585572   -1.233594   -1.750694 H        1 UNL1     0.0937
     32 H         0.0   0.0   0.0 H        1 UNL1     0.0671
     33 H         -2.403441   -0.602612   -0.880645 H        1 UNL1     0.0649
     34 H         -2.746744   -3.12515   -0.914355 H        1 UNL1     0.0683
     35 H         -0.885952   -4.363197   -1.923782 H        1 UNL1     0.1085
     36 H         -0.687956   -6.394366   -1.522026 H        1 UNL1     0.0691
     37 H         1.372859   -4.628203   1.834148 H        1 UNL1     0.0691
     38 H         4.666239   -8.091686   0.869501 H        1 UNL1     0.0385
     39 H         4.311668   -9.652852   1.634736 H        1 UNL1     0.0385
     40 H         4.300424   -7.715131   3.251665 H        1 UNL1     0.0789
     41 H         3.857825   -8.728044   5.229586 H        1 UNL1     0.0623
     42 H         2.452715   -10.147045   6.669825 H        1 UNL1     0.0654
     43 H         -0.490882   -10.415649   3.553341 H        1 UNL1     0.0654
     44 H         0.856707   -8.98709   2.121846 H        1 UNL1     0.0623
     45 H         0.748445   -11.474484   6.752735 H        1 UNL1     0.2921
     46 H         0.242218   -8.251183   -2.310293 H        1 UNL1     0.2922
     47 H         2.430613   -2.489661   -0.106215 H        1 UNL1     0.2126
     48 H         0.226792   -0.238944   -2.66648 H        1 UNL1     0.2101
     49 H         -2.15363   -0.601208   1.240706 H        1 UNL1     0.2100
     50 H         -2.037463   -3.150723   -3.19593 H        1 UNL1     0.2102
@<TRIPOS>BOND
     1     1     2    1
     2     1     6    1
     3     2     3    1
     4     3     4    1
     5     3    29    1
     6     3    33    1
     7     4     5    1
     8     5     6    1
     9     5     7    1
    10     5    35    1
    11     7     8    1
    12     8     9   ar
    13     8    13   ar
    14     9    10   ar
    15     9    36    1
    16    10    11   ar
    17    10    26    1
    18    11    12   ar
    19    11    14    1
    20    12    13   ar
    21    12    17    1
    22    13    37    1
    23    14    15    1
    24    14    25    2
    25    15    16    1
    26    15    38    1
    27    15    39    1
    28    16    17    1
    29    16    18    1
    30    16    40    1
    31    18    19   ar
    32    18    23   ar
    33    19    20   ar
    34    19    41    1
    35    20    21   ar
    36    20    42    1
    37    21    22   ar
    38    21    24    1
    39    22    23   ar
    40    22    43    1
    41    23    44    1
    42    24    45    1
    43    26    46    1
    44    27    47    1
    45    28    48    1
    46    29    49    1
    47    30    50    1
    48     1    31    1
    49     1    27    1
    50     2    32    1
    51     2    28    1
    52     4    34    1
    53     4    30    1
