@<TRIPOS>MOLECULE
*****
 50 53 0 0 0
SMALL
GASTEIGER

@<TRIPOS>ATOM
     1 C         0.048618   -1.659626   1.419184 C.3        1 UNL1     0.1889
     2 C         -0.644931   -0.427877   0.777526 C.3        1 UNL1     0.1342
     3 C         -1.034336   0.678176   1.770237 C.3        1 UNL1     0.1174
     4 C         -1.465383   0.128393   3.132241 C.3        1 UNL1     0.1456
     5 C         -0.502425   -0.947843   3.6659 C.3        1 UNL1     0.2326
     6 O         -0.39118   -2.011311   2.722752 O.3        1 UNL1     -0.3076
     7 O         0.77211   -0.422487   4.079279 O.3        1 UNL1     -0.4605
     8 C         1.736277   -0.324222   3.092236 C.ar        1 UNL1     0.1310
     9 C         2.38952   0.85302   2.711875 C.ar        1 UNL1     0.0226
     10 C         3.366912   0.846928   1.709592 C.ar        1 UNL1     0.1343
     11 C         3.732091   -0.341853   1.079286 C.ar        1 UNL1     0.1007
     12 C         3.057781   -1.516923   1.421776 C.ar        1 UNL1     0.1389
     13 C         2.07319   -1.510079   2.427741 C.ar        1 UNL1     0.0229
     14 C         4.816708   -0.419842   0.073464 C.2        1 UNL1     0.1740
     15 C         5.225652   -1.80476   -0.334354 C.3        1 UNL1     0.0520
     16 C         3.9718   -2.658302   -0.465794 C.3        1 UNL1     0.1322
     17 O         3.260835   -2.721979   0.790209 O.3        1 UNL1     -0.4828
     18 C         3.100724   -2.292335   -1.669962 C.ar        1 UNL1     -0.0067
     19 C         3.403462   -1.135897   -2.41777 C.ar        1 UNL1     -0.0516
     20 C         2.599442   -0.746635   -3.495726 C.ar        1 UNL1     -0.0198
     21 C         1.488219   -1.499562   -3.830555 C.ar        1 UNL1     0.1169
     22 C         1.183295   -2.661807   -3.134102 C.ar        1 UNL1     -0.0198
     23 C         1.997671   -3.061398   -2.067717 C.ar        1 UNL1     -0.0516
     24 O         0.707287   -1.068693   -4.862494 O.3        1 UNL1     -0.5068
     25 O         5.413854   0.564353   -0.354626 O.2        1 UNL1     -0.2917
     26 O         3.965529   2.029163   1.384688 O.3        1 UNL1     -0.5058
     27 O         1.464375   -1.61744   1.337694 O.3        1 UNL1     -0.3648
     28 O         -1.853877   -0.869705   0.132588 O.3        1 UNL1     -0.3841
     29 O         0.002173   1.656733   1.871277 O.3        1 UNL1     -0.3863
     30 O         -2.784981   -0.446579   3.014939 O.3        1 UNL1     -0.3829
     31 H         -0.230694   -2.527521   0.811877 H        1 UNL1     0.0937
     32 H         0.0   0.0   0.0 H        1 UNL1     0.0671
     33 H         -1.900235   1.212192   1.354587 H        1 UNL1     0.0649
     34 H         -1.534844   0.944462   3.859982 H        1 UNL1     0.0683
     35 H         -1.019694   -1.353454   4.544416 H        1 UNL1     0.1085
     36 H         2.190596   1.799541   3.202433 H        1 UNL1     0.0691
     37 H         1.562123   -2.438045   2.675093 H        1 UNL1     0.0691
     38 H         5.89025   -2.196296   0.443165 H        1 UNL1     0.0385
     39 H         5.790067   -1.751015   -1.271544 H        1 UNL1     0.0385
     40 H         4.30046   -3.69046   -0.64787 H        1 UNL1     0.0789
     41 H         4.264941   -0.522909   -2.169275 H        1 UNL1     0.0623
     42 H         2.836553   0.153689   -4.057159 H        1 UNL1     0.0654
     43 H         0.324067   -3.267055   -3.397377 H        1 UNL1     0.0654
     44 H         1.735828   -3.980498   -1.552414 H        1 UNL1     0.0623
     45 H         0.431116   -0.156342   -4.67793 H        1 UNL1     0.2921
     46 H         4.929002   1.914578   1.384315 H        1 UNL1     0.2922
     47 H         1.741811   -1.415429   0.433216 H        1 UNL1     0.2126
     48 H         -1.899007   -0.405288   -0.725323 H        1 UNL1     0.2101
     49 H         0.868934   1.220259   1.874307 H        1 UNL1     0.2100
     50 H         -3.131653   -0.592791   3.919457 H        1 UNL1     0.2102
@<TRIPOS>BOND
     1     1     2    1
     2     1     6    1
     3     2     3    1
     4     3     4    1
     5     3    29    1
     6     3    33    1
     7     4     5    1
     8     5     6    1
     9     5     7    1
    10     5    35    1
    11     7     8    1
    12     8     9   ar
    13     8    13   ar
    14     9    10   ar
    15     9    36    1
    16    10    11   ar
    17    10    26    1
    18    11    12   ar
    19    11    14    1
    20    12    13   ar
    21    12    17    1
    22    13    37    1
    23    14    15    1
    24    14    25    2
    25    15    16    1
    26    15    38    1
    27    15    39    1
    28    16    17    1
    29    16    18    1
    30    16    40    1
    31    18    19   ar
    32    18    23   ar
    33    19    20   ar
    34    19    41    1
    35    20    21   ar
    36    20    42    1
    37    21    22   ar
    38    21    24    1
    39    22    23   ar
    40    22    43    1
    41    23    44    1
    42    24    45    1
    43    26    46    1
    44    27    47    1
    45    28    48    1
    46    29    49    1
    47    30    50    1
    48     1    31    1
    49     1    27    1
    50     2    32    1
    51     2    28    1
    52     4    34    1
    53     4    30    1
