@<TRIPOS>MOLECULE
*****
 50 53 0 0 0
SMALL
GASTEIGER

@<TRIPOS>ATOM
     1 C         -0.329868   -1.355199   1.680901 C.3        1 UNL1     0.1889
     2 C         -0.466772   -0.976038   0.181756 C.3        1 UNL1     0.1342
     3 C         -1.910467   -0.946571   -0.342976 C.3        1 UNL1     0.1174
     4 C         -2.79895   -2.012028   0.303953 C.3        1 UNL1     0.1456
     5 C         -2.638935   -2.064203   1.834324 C.3        1 UNL1     0.2326
     6 O         -1.273343   -2.295644   2.172645 O.3        1 UNL1     -0.3076
     7 O         -3.203828   -0.925266   2.508891 O.3        1 UNL1     -0.4605
     8 C         -3.718115   -1.161861   3.771056 C.ar        1 UNL1     0.1310
     9 C         -4.545666   -2.234256   4.120954 C.ar        1 UNL1     0.0226
     10 C         -5.002563   -2.397381   5.43417 C.ar        1 UNL1     0.1343
     11 C         -4.623203   -1.504431   6.435453 C.ar        1 UNL1     0.1007
     12 C         -3.830606   -0.406674   6.089759 C.ar        1 UNL1     0.1389
     13 C         -3.373493   -0.241406   4.768712 C.ar        1 UNL1     0.0229
     14 C         -5.008064   -1.675923   7.855533 C.2        1 UNL1     0.1740
     15 C         -4.331734   -0.754174   8.82739 C.3        1 UNL1     0.0520
     16 C         -4.247724   0.630335   8.199669 C.3        1 UNL1     0.1322
     17 O         -3.487336   0.591435   6.971921 O.3        1 UNL1     -0.4828
     18 C         -5.599879   1.338525   8.086232 C.ar        1 UNL1     -0.0067
     19 C         -5.963434   1.945814   6.866707 C.ar        1 UNL1     -0.0516
     20 C         -7.171621   2.642217   6.743139 C.ar        1 UNL1     -0.0198
     21 C         -8.019592   2.744538   7.831395 C.ar        1 UNL1     0.1169
     22 C         -7.704774   2.128782   9.035792 C.ar        1 UNL1     -0.0198
     23 C         -6.505226   1.416664   9.154238 C.ar        1 UNL1     -0.0516
     24 O         -9.169815   3.462721   7.684424 O.3        1 UNL1     -0.5068
     25 O         -5.766255   -2.558559   8.248706 O.2        1 UNL1     -0.2917
     26 O         -5.80788   -3.463786   5.709541 O.3        1 UNL1     -0.5058
     27 O         -0.213534   -0.232003   2.539786 O.3        1 UNL1     -0.3648
     28 O         0.254027   -1.945363   -0.601546 O.3        1 UNL1     -0.3841
     29 O         -2.460144   0.368598   -0.241397 O.3        1 UNL1     -0.3863
     30 O         -2.461577   -3.305652   -0.242314 O.3        1 UNL1     -0.3829
     31 H         0.628574   -1.875266   1.785777 H        1 UNL1     0.0937
     32 H         0.0   0.0   0.0 H        1 UNL1     0.0671
     33 H         -1.880773   -1.168081   -1.418974 H        1 UNL1     0.0649
     34 H         -3.849478   -1.82361   0.056383 H        1 UNL1     0.0683
     35 H         -3.19692   -2.962082   2.12817 H        1 UNL1     0.1085
     36 H         -4.830339   -2.993459   3.40075 H        1 UNL1     0.0691
     37 H         -2.758502   0.622271   4.525111 H        1 UNL1     0.0691
     38 H         -3.333662   -1.158335   9.027471 H        1 UNL1     0.0385
     39 H         -4.893512   -0.749077   9.767687 H        1 UNL1     0.0385
     40 H         -3.647792   1.255837   8.874464 H        1 UNL1     0.0789
     41 H         -5.310882   1.887602   6.000429 H        1 UNL1     0.0623
     42 H         -7.435185   3.116305   5.800914 H        1 UNL1     0.0654
     43 H         -8.368602   2.189878   9.889906 H        1 UNL1     0.0654
     44 H         -6.296214   0.939215   10.106709 H        1 UNL1     0.0623
     45 H         -8.933355   4.383399   7.486544 H        1 UNL1     0.2921
     46 H         -5.411128   -3.994254   6.418487 H        1 UNL1     0.2922
     47 H         0.518078   0.333105   2.254731 H        1 UNL1     0.2126
     48 H         1.19519   -1.859912   -0.35529 H        1 UNL1     0.2101
     49 H         -2.027515   0.957335   -0.880157 H        1 UNL1     0.2100
     50 H         -2.70544   -3.30519   -1.191125 H        1 UNL1     0.2102
@<TRIPOS>BOND
     1     1     2    1
     2     1     6    1
     3     2     3    1
     4     3     4    1
     5     3    29    1
     6     3    33    1
     7     4     5    1
     8     5     6    1
     9     5     7    1
    10     5    35    1
    11     7     8    1
    12     8     9   ar
    13     8    13   ar
    14     9    10   ar
    15     9    36    1
    16    10    11   ar
    17    10    26    1
    18    11    12   ar
    19    11    14    1
    20    12    13   ar
    21    12    17    1
    22    13    37    1
    23    14    15    1
    24    14    25    2
    25    15    16    1
    26    15    38    1
    27    15    39    1
    28    16    17    1
    29    16    18    1
    30    16    40    1
    31    18    19   ar
    32    18    23   ar
    33    19    20   ar
    34    19    41    1
    35    20    21   ar
    36    20    42    1
    37    21    22   ar
    38    21    24    1
    39    22    23   ar
    40    22    43    1
    41    23    44    1
    42    24    45    1
    43    26    46    1
    44    27    47    1
    45    28    48    1
    46    29    49    1
    47    30    50    1
    48     1    31    1
    49     1    27    1
    50     2    32    1
    51     2    28    1
    52     4    34    1
    53     4    30    1
