@<TRIPOS>MOLECULE
*****
 50 53 0 0 0
SMALL
GASTEIGER

@<TRIPOS>ATOM
     1 C         1.392335   -0.535188   1.59555 C.3        1 UNL1     0.1889
     2 C         -0.017467   -0.555383   0.945942 C.3        1 UNL1     0.1342
     3 C         -1.140624   0.002159   1.833708 C.3        1 UNL1     0.1174
     4 C         -0.932135   -0.306478   3.318427 C.3        1 UNL1     0.1456
     5 C         0.505108   -0.013216   3.786073 C.3        1 UNL1     0.2326
     6 O         1.433526   -0.754615   2.997888 O.3        1 UNL1     -0.3076
     7 O         0.811835   1.391489   3.849656 O.3        1 UNL1     -0.4605
     8 C         1.733255   1.853159   2.926956 C.ar        1 UNL1     0.1310
     9 C         1.711958   3.114404   2.321889 C.ar        1 UNL1     0.0226
     10 C         2.702821   3.496282   1.409605 C.ar        1 UNL1     0.1343
     11 C         3.753283   2.63415   1.097998 C.ar        1 UNL1     0.1007
     12 C         3.762844   1.356761   1.664538 C.ar        1 UNL1     0.1389
     13 C         2.764971   0.972049   2.579785 C.ar        1 UNL1     0.0229
     14 C         4.871755   3.017197   0.205557 C.2        1 UNL1     0.1740
     15 C         6.02312   2.056115   0.158362 C.3        1 UNL1     0.0520
     16 C         5.467619   0.638594   0.154876 C.3        1 UNL1     0.1322
     17 O         4.688356   0.390291   1.345743 O.3        1 UNL1     -0.4828
     18 C         4.769586   0.253559   -1.151731 C.ar        1 UNL1     -0.0067
     19 C         3.872884   1.161529   -1.751506 C.ar        1 UNL1     -0.0516
     20 C         3.181986   0.82225   -2.920912 C.ar        1 UNL1     -0.0198
     21 C         3.373085   -0.42188   -3.494889 C.ar        1 UNL1     0.1169
     22 C         4.274628   -1.324752   -2.946362 C.ar        1 UNL1     -0.0198
     23 C         4.979488   -0.978677   -1.787285 C.ar        1 UNL1     -0.0516
     24 O         2.654454   -0.731298   -4.612132 O.3        1 UNL1     -0.5068
     25 O         4.915913   4.082517   -0.404057 O.2        1 UNL1     -0.2917
     26 O         2.623758   4.739873   0.853894 O.3        1 UNL1     -0.5058
     27 O         2.172741   0.587852   1.218015 O.3        1 UNL1     -0.3648
     28 O         -0.355942   -1.919258   0.632914 O.3        1 UNL1     -0.3841
     29 O         -1.34314   1.393993   1.580887 O.3        1 UNL1     -0.3863
     30 O         -1.222669   -1.700745   3.557802 O.3        1 UNL1     -0.3829
     31 H         1.937745   -1.392488   1.186106 H        1 UNL1     0.0937
     32 H         0.0   0.0   0.0 H        1 UNL1     0.0671
     33 H         -2.078074   -0.487915   1.535823 H        1 UNL1     0.0649
     34 H         -1.635391   0.276023   3.92384 H        1 UNL1     0.0683
     35 H         0.543499   -0.430009   4.800316 H        1 UNL1     0.1085
     36 H         0.953436   3.850525   2.564564 H        1 UNL1     0.0691
     37 H         2.794391   -0.028414   3.006048 H        1 UNL1     0.0691
     38 H         6.641158   2.235937   1.044488 H        1 UNL1     0.0385
     39 H         6.629257   2.265471   -0.72964 H        1 UNL1     0.0385
     40 H         6.323485   -0.044684   0.239399 H        1 UNL1     0.0789
     41 H         3.698569   2.140817   -1.315318 H        1 UNL1     0.0623
     42 H         2.484261   1.526526   -3.367216 H        1 UNL1     0.0654
     43 H         4.443152   -2.295947   -3.39613 H        1 UNL1     0.0654
     44 H         5.683722   -1.70433   -1.391902 H        1 UNL1     0.0623
     45 H         1.711569   -0.613246   -4.412764 H        1 UNL1     0.2921
     46 H         1.702237   4.930666   0.617657 H        1 UNL1     0.2922
     47 H         2.162537   0.694705   0.25659 H        1 UNL1     0.2126
     48 H         0.487753   -2.39949   0.526662 H        1 UNL1     0.2101
     49 H         -0.489434   1.855404   1.571872 H        1 UNL1     0.2100
     50 H         -1.800504   -1.757168   4.346875 H        1 UNL1     0.2102
@<TRIPOS>BOND
     1     1     2    1
     2     1     6    1
     3     2     3    1
     4     3     4    1
     5     3    29    1
     6     3    33    1
     7     4     5    1
     8     5     6    1
     9     5     7    1
    10     5    35    1
    11     7     8    1
    12     8     9   ar
    13     8    13   ar
    14     9    10   ar
    15     9    36    1
    16    10    11   ar
    17    10    26    1
    18    11    12   ar
    19    11    14    1
    20    12    13   ar
    21    12    17    1
    22    13    37    1
    23    14    15    1
    24    14    25    2
    25    15    16    1
    26    15    38    1
    27    15    39    1
    28    16    17    1
    29    16    18    1
    30    16    40    1
    31    18    19   ar
    32    18    23   ar
    33    19    20   ar
    34    19    41    1
    35    20    21   ar
    36    20    42    1
    37    21    22   ar
    38    21    24    1
    39    22    23   ar
    40    22    43    1
    41    23    44    1
    42    24    45    1
    43    26    46    1
    44    27    47    1
    45    28    48    1
    46    29    49    1
    47    30    50    1
    48     1    31    1
    49     1    27    1
    50     2    32    1
    51     2    28    1
    52     4    34    1
    53     4    30    1
