@<TRIPOS>MOLECULE
*****
 50 53 0 0 0
SMALL
GASTEIGER

@<TRIPOS>ATOM
     1 C         0.743629   0.542683   1.980736 C.3        1 UNL1     0.1889
     2 C         -0.233985   0.725683   0.788795 C.3        1 UNL1     0.1342
     3 C         -0.248908   2.137338   0.182601 C.3        1 UNL1     0.1174
     4 C         -0.038119   3.234735   1.228739 C.3        1 UNL1     0.1456
     5 C         1.128767   2.923544   2.183674 C.3        1 UNL1     0.2326
     6 O         0.909038   1.670521   2.827505 O.3        1 UNL1     -0.3076
     7 O         2.421831   3.019767   1.559136 O.3        1 UNL1     -0.4605
     8 C         3.504898   2.689255   2.353653 C.ar        1 UNL1     0.1310
     9 C         3.432044   2.235353   3.675003 C.ar        1 UNL1     0.0226
     10 C         4.588742   1.90907   4.392981 C.ar        1 UNL1     0.1343
     11 C         5.846128   2.006205   3.798519 C.ar        1 UNL1     0.1007
     12 C         5.934511   2.497306   2.493225 C.ar        1 UNL1     0.1389
     13 C         4.771495   2.827826   1.772405 C.ar        1 UNL1     0.0229
     14 C         7.094139   1.595198   4.4824 C.2        1 UNL1     0.1740
     15 C         8.323132   1.556055   3.622404 C.3        1 UNL1     0.0520
     16 C         8.299158   2.76144   2.692657 C.3        1 UNL1     0.1322
     17 O         7.12654   2.73525   1.849241 O.3        1 UNL1     -0.4828
     18 C         8.53798   4.094524   3.405803 C.ar        1 UNL1     -0.0067
     19 C         9.810664   4.373164   3.945106 C.ar        1 UNL1     -0.0516
     20 C         10.049811   5.562093   4.644548 C.ar        1 UNL1     -0.0198
     21 C         9.02491   6.47506   4.817458 C.ar        1 UNL1     0.1169
     22 C         7.769896   6.24422   4.269286 C.ar        1 UNL1     -0.0198
     23 C         7.535503   5.063797   3.553942 C.ar        1 UNL1     -0.0516
     24 O         9.284955   7.604396   5.536746 O.3        1 UNL1     -0.5068
     25 O         7.133831   1.228126   5.653796 O.2        1 UNL1     -0.2917
     26 O         4.449097   1.473342   5.67837 O.3        1 UNL1     -0.5058
     27 O         1.991595   -0.019314   1.607205 O.3        1 UNL1     -0.3648
     28 O         -1.569205   0.441797   1.246289 O.3        1 UNL1     -0.3841
     29 O         0.668374   2.23002   -0.909248 O.3        1 UNL1     -0.3863
     30 O         -1.245879   3.386699   2.005857 O.3        1 UNL1     -0.3829
     31 H         0.295898   -0.208992   2.63998 H        1 UNL1     0.0937
     32 H         0.0   0.0   -0.0 H        1 UNL1     0.0671
     33 H         -1.242654   2.30333   -0.256303 H        1 UNL1     0.0649
     34 H         0.146587   4.193938   0.732538 H        1 UNL1     0.0683
     35 H         1.051053   3.697645   2.957372 H        1 UNL1     0.1085
     36 H         2.481339   2.085064   4.174697 H        1 UNL1     0.0691
     37 H         4.867384   3.20906   0.758028 H        1 UNL1     0.0691
     38 H         8.300819   0.619341   3.05531 H        1 UNL1     0.0385
     39 H         9.210419   1.546065   4.264587 H        1 UNL1     0.0385
     40 H         9.140986   2.649676   1.995982 H        1 UNL1     0.0789
     41 H         10.629252   3.668526   3.830876 H        1 UNL1     0.0623
     42 H         11.032291   5.760023   5.065937 H        1 UNL1     0.0654
     43 H         6.964306   6.959314   4.385801 H        1 UNL1     0.0654
     44 H         6.546069   4.920992   3.130302 H        1 UNL1     0.0623
     45 H         10.033732   8.06495   5.124507 H        1 UNL1     0.2921
     46 H         5.282449   1.076833   5.977897 H        1 UNL1     0.2922
     47 H         1.854508   -0.806021   1.061166 H        1 UNL1     0.2126
     48 H         -1.480784   -0.155384   2.013942 H        1 UNL1     0.2101
     49 H         1.138861   3.07807   -0.873923 H        1 UNL1     0.2100
     50 H         -1.93976   3.749151   1.4169 H        1 UNL1     0.2102
@<TRIPOS>BOND
     1     1     2    1
     2     1     6    1
     3     2     3    1
     4     3     4    1
     5     3    29    1
     6     3    33    1
     7     4     5    1
     8     5     6    1
     9     5     7    1
    10     5    35    1
    11     7     8    1
    12     8     9   ar
    13     8    13   ar
    14     9    10   ar
    15     9    36    1
    16    10    11   ar
    17    10    26    1
    18    11    12   ar
    19    11    14    1
    20    12    13   ar
    21    12    17    1
    22    13    37    1
    23    14    15    1
    24    14    25    2
    25    15    16    1
    26    15    38    1
    27    15    39    1
    28    16    17    1
    29    16    18    1
    30    16    40    1
    31    18    19   ar
    32    18    23   ar
    33    19    20   ar
    34    19    41    1
    35    20    21   ar
    36    20    42    1
    37    21    22   ar
    38    21    24    1
    39    22    23   ar
    40    22    43    1
    41    23    44    1
    42    24    45    1
    43    26    46    1
    44    27    47    1
    45    28    48    1
    46    29    49    1
    47    30    50    1
    48     1    31    1
    49     1    27    1
    50     2    32    1
    51     2    28    1
    52     4    34    1
    53     4    30    1
