@<TRIPOS>MOLECULE
*****
 50 53 0 0 0
SMALL
GASTEIGER

@<TRIPOS>ATOM
     1 C         0.31934   -0.638791   2.064164 C.3        1 UNL1     0.1889
     2 C         0.013494   -0.936324   0.571557 C.3        1 UNL1     0.1342
     3 C         -1.300622   -1.693056   0.32474 C.3        1 UNL1     0.1174
     4 C         -1.621254   -2.701868   1.430457 C.3        1 UNL1     0.1456
     5 C         -1.438556   -2.110421   2.84013 C.3        1 UNL1     0.2326
     6 O         -0.10741   -1.62339   2.994134 O.3        1 UNL1     -0.3076
     7 O         -2.440737   -1.137825   3.187997 O.3        1 UNL1     -0.4605
     8 C         -2.781928   -1.071234   4.526908 C.ar        1 UNL1     0.1310
     9 C         -3.045418   -2.17019   5.351631 C.ar        1 UNL1     0.0226
     10 C         -3.367022   -1.999933   6.703476 C.ar        1 UNL1     0.1343
     11 C         -3.40965   -0.72657   7.269666 C.ar        1 UNL1     0.1007
     12 C         -3.188674   0.380906   6.446593 C.ar        1 UNL1     0.1389
     13 C         -2.867918   0.209591   5.086741 C.ar        1 UNL1     0.0229
     14 C         -3.661655   -0.494015   8.710695 C.2        1 UNL1     0.1740
     15 C         -3.451068   0.912934   9.187871 C.3        1 UNL1     0.0520
     16 C         -3.995798   1.866066   8.132994 C.3        1 UNL1     0.1322
     17 O         -3.31163   1.682662   6.873888 O.3        1 UNL1     -0.4828
     18 C         -5.523004   1.8648   8.03118 C.ar        1 UNL1     -0.0067
     19 C         -6.132484   1.766683   6.763457 C.ar        1 UNL1     -0.0516
     20 C         -7.525494   1.810264   6.630843 C.ar        1 UNL1     -0.0198
     21 C         -8.317953   1.95873   7.755029 C.ar        1 UNL1     0.1169
     22 C         -7.748616   2.02433   9.020095 C.ar        1 UNL1     -0.0198
     23 C         -6.356464   1.962223   9.154678 C.ar        1 UNL1     -0.0516
     24 O         -9.668902   2.03524   7.58332 O.3        1 UNL1     -0.5068
     25 O         -3.946358   -1.39042   9.50056 O.2        1 UNL1     -0.2917
     26 O         -3.614129   -3.112777   7.453211 O.3        1 UNL1     -0.5058
     27 O         -0.062612   0.665774   2.470376 O.3        1 UNL1     -0.3648
     28 O         1.079639   -1.744597   0.03983 O.3        1 UNL1     -0.3841
     29 O         -2.372896   -0.780636   0.080096 O.3        1 UNL1     -0.3863
     30 O         -0.753683   -3.848105   1.292073 O.3        1 UNL1     -0.3829
     31 H         1.409943   -0.644831   2.167252 H        1 UNL1     0.0937
     32 H         -0.0   0.0   0.0 H        1 UNL1     0.0671
     33 H         -1.187588   -2.266684   -0.605794 H        1 UNL1     0.0649
     34 H         -2.649725   -3.063147   1.320341 H        1 UNL1     0.0683
     35 H         -1.540212   -2.976775   3.505694 H        1 UNL1     0.1085
     36 H         -2.973624   -3.188352   4.985145 H        1 UNL1     0.0691
     37 H         -2.701426   1.088052   4.466999 H        1 UNL1     0.0691
     38 H         -2.374824   1.056285   9.331661 H        1 UNL1     0.0385
     39 H         -3.945672   1.041172   10.156737 H        1 UNL1     0.0385
     40 H         -3.726289   2.883802   8.446201 H        1 UNL1     0.0789
     41 H         -5.532082   1.658754   5.864837 H        1 UNL1     0.0623
     42 H         -7.983014   1.745566   5.646719 H        1 UNL1     0.0654
     43 H         -8.360554   2.125529   9.908464 H        1 UNL1     0.0654
     44 H         -5.946253   2.005803   10.159004 H        1 UNL1     0.0623
     45 H         -9.864842   2.812118   7.034881 H        1 UNL1     0.2921
     46 H         -3.015067   -3.128347   8.216293 H        1 UNL1     0.2922
     47 H         0.354904   1.328801   1.902982 H        1 UNL1     0.2126
     48 H         1.893404   -1.207845   0.098286 H        1 UNL1     0.2101
     49 H         -2.251018   -0.351643   -0.781823 H        1 UNL1     0.2100
     50 H         -0.982709   -4.30011   0.453651 H        1 UNL1     0.2102
@<TRIPOS>BOND
     1     1     2    1
     2     1     6    1
     3     2     3    1
     4     3     4    1
     5     3    29    1
     6     3    33    1
     7     4     5    1
     8     5     6    1
     9     5     7    1
    10     5    35    1
    11     7     8    1
    12     8     9   ar
    13     8    13   ar
    14     9    10   ar
    15     9    36    1
    16    10    11   ar
    17    10    26    1
    18    11    12   ar
    19    11    14    1
    20    12    13   ar
    21    12    17    1
    22    13    37    1
    23    14    15    1
    24    14    25    2
    25    15    16    1
    26    15    38    1
    27    15    39    1
    28    16    17    1
    29    16    18    1
    30    16    40    1
    31    18    19   ar
    32    18    23   ar
    33    19    20   ar
    34    19    41    1
    35    20    21   ar
    36    20    42    1
    37    21    22   ar
    38    21    24    1
    39    22    23   ar
    40    22    43    1
    41    23    44    1
    42    24    45    1
    43    26    46    1
    44    27    47    1
    45    28    48    1
    46    29    49    1
    47    30    50    1
    48     1    31    1
    49     1    27    1
    50     2    32    1
    51     2    28    1
    52     4    34    1
    53     4    30    1
