@<TRIPOS>MOLECULE
*****
 50 53 0 0 0
SMALL
GASTEIGER

@<TRIPOS>ATOM
     1 C         -0.324806   -1.364604   1.674265 C.3        1 UNL1     0.1889
     2 C         -0.463298   -0.97856   0.177024 C.3        1 UNL1     0.1342
     3 C         -1.907176   -0.951603   -0.347338 C.3        1 UNL1     0.1174
     4 C         -2.791789   -2.023354   0.294477 C.3        1 UNL1     0.1456
     5 C         -2.631333   -2.08249   1.824549 C.3        1 UNL1     0.2326
     6 O         -1.264877   -2.310777   2.16152 O.3        1 UNL1     -0.3076
     7 O         -3.200124   -0.948884   2.504794 O.3        1 UNL1     -0.4605
     8 C         -3.713361   -1.193494   3.765858 C.ar        1 UNL1     0.1310
     9 C         -4.537067   -2.270508   4.110603 C.ar        1 UNL1     0.0226
     10 C         -4.993165   -2.441699   5.42307 C.ar        1 UNL1     0.1343
     11 C         -4.616786   -1.552352   6.428675 C.ar        1 UNL1     0.1007
     12 C         -3.828122   -0.450121   6.088264 C.ar        1 UNL1     0.1389
     13 C         -3.371816   -0.276747   4.767977 C.ar        1 UNL1     0.0229
     14 C         -5.0008   -1.732182   7.847952 C.2        1 UNL1     0.1740
     15 C         -4.32756   -0.812845   8.824229 C.3        1 UNL1     0.0520
     16 C         -4.248537   0.575022   8.203313 C.3        1 UNL1     0.1322
     17 O         -3.488223   0.544842   6.975273 O.3        1 UNL1     -0.4828
     18 C         -5.603199   1.278989   8.093565 C.ar        1 UNL1     -0.0067
     19 C         -5.969097   1.890983   6.877097 C.ar        1 UNL1     -0.0516
     20 C         -7.179752   2.583722   6.757138 C.ar        1 UNL1     -0.0198
     21 C         -8.027895   2.6777   7.846013 C.ar        1 UNL1     0.1169
     22 C         -7.710705   2.057141   9.047319 C.ar        1 UNL1     -0.0198
     23 C         -6.508635   1.348682   9.162079 C.ar        1 UNL1     -0.0516
     24 O         -9.180667   3.392537   7.70275 O.3        1 UNL1     -0.5068
     25 O         -5.755809   -2.619409   8.236895 O.2        1 UNL1     -0.2917
     26 O         -5.794671   -3.512279   5.693314 O.3        1 UNL1     -0.5058
     27 O         -0.212286   -0.245242   2.538646 O.3        1 UNL1     -0.3648
     28 O         0.260781   -1.941474   -0.611146 O.3        1 UNL1     -0.3841
     29 O         -2.461469   0.361105   -0.239209 O.3        1 UNL1     -0.3863
     30 O         -2.44995   -3.313078   -0.258197 O.3        1 UNL1     -0.3829
     31 H         0.635481   -1.881798   1.776436 H        1 UNL1     0.0937
     32 H         0.0   0.0   0.0 H        1 UNL1     0.0671
     33 H         -1.876883   -1.167712   -1.424417 H        1 UNL1     0.0649
     34 H         -3.843016   -1.837426   0.047995 H        1 UNL1     0.0683
     35 H         -3.1861   -2.983765   2.114059 H        1 UNL1     0.1085
     36 H         -4.819183   -3.027159   3.386717 H        1 UNL1     0.0691
     37 H         -2.759915   0.59028   4.528534 H        1 UNL1     0.0691
     38 H         -3.328035   -1.214464   9.022169 H        1 UNL1     0.0385
     39 H         -4.889193   -0.814353   9.764625 H        1 UNL1     0.0385
     40 H         -3.650699   1.199309   8.881086 H        1 UNL1     0.0789
     41 H         -5.31649   1.839333   6.010444 H        1 UNL1     0.0623
     42 H         -7.445145   3.061505   5.817297 H        1 UNL1     0.0654
     43 H         -8.374601   2.111695   9.901823 H        1 UNL1     0.0654
     44 H         -6.29778   0.867295   10.112159 H        1 UNL1     0.0623
     45 H         -8.947487   4.315005   7.509365 H        1 UNL1     0.2921
     46 H         -5.395933   -4.044824   6.399582 H        1 UNL1     0.2922
     47 H         0.517281   0.323837   2.256263 H        1 UNL1     0.2126
     48 H         1.200183   -1.86178   -0.356382 H        1 UNL1     0.2101
     49 H         -2.031025   0.954498   -0.875131 H        1 UNL1     0.2100
     50 H         -2.693974   -3.308809   -1.206958 H        1 UNL1     0.2102
@<TRIPOS>BOND
     1     1     2    1
     2     1     6    1
     3     2     3    1
     4     3     4    1
     5     3    29    1
     6     3    33    1
     7     4     5    1
     8     5     6    1
     9     5     7    1
    10     5    35    1
    11     7     8    1
    12     8     9   ar
    13     8    13   ar
    14     9    10   ar
    15     9    36    1
    16    10    11   ar
    17    10    26    1
    18    11    12   ar
    19    11    14    1
    20    12    13   ar
    21    12    17    1
    22    13    37    1
    23    14    15    1
    24    14    25    2
    25    15    16    1
    26    15    38    1
    27    15    39    1
    28    16    17    1
    29    16    18    1
    30    16    40    1
    31    18    19   ar
    32    18    23   ar
    33    19    20   ar
    34    19    41    1
    35    20    21   ar
    36    20    42    1
    37    21    22   ar
    38    21    24    1
    39    22    23   ar
    40    22    43    1
    41    23    44    1
    42    24    45    1
    43    26    46    1
    44    27    47    1
    45    28    48    1
    46    29    49    1
    47    30    50    1
    48     1    31    1
    49     1    27    1
    50     2    32    1
    51     2    28    1
    52     4    34    1
    53     4    30    1
