@<TRIPOS>MOLECULE
*****
 50 53 0 0 0
SMALL
GASTEIGER

@<TRIPOS>ATOM
     1 C         0.165122   -1.984877   -0.89655 C.3        1 UNL1     0.1889
     2 C         -0.173445   -1.043574   0.290573 C.3        1 UNL1     0.1342
     3 C         0.601044   -1.338893   1.58418 C.3        1 UNL1     0.1174
     4 C         0.866278   -2.832444   1.789299 C.3        1 UNL1     0.1456
     5 C         1.39418   -3.518462   0.516089 C.3        1 UNL1     0.2326
     6 O         0.47342   -3.328471   -0.555812 O.3        1 UNL1     -0.3076
     7 O         2.741409   -3.141343   0.178339 O.3        1 UNL1     -0.4605
     8 C         3.504897   -4.112639   -0.443915 C.ar        1 UNL1     0.1310
     9 C         3.850536   -5.349942   0.110085 C.ar        1 UNL1     0.0226
     10 C         4.615804   -6.27622   -0.608438 C.ar        1 UNL1     0.1343
     11 C         5.034301   -5.997   -1.908721 C.ar        1 UNL1     0.1007
     12 C         4.730181   -4.748286   -2.457363 C.ar        1 UNL1     0.1389
     13 C         3.962942   -3.816039   -1.733698 C.ar        1 UNL1     0.0229
     14 C         5.773107   -6.972158   -2.743818 C.2        1 UNL1     0.1740
     15 C         5.9468   -6.592546   -4.185094 C.3        1 UNL1     0.0520
     16 C         6.258437   -5.104038   -4.257078 C.3        1 UNL1     0.1322
     17 O         5.182885   -4.326754   -3.686036 O.3        1 UNL1     -0.4828
     18 C         7.650565   -4.740031   -3.735347 C.ar        1 UNL1     -0.0067
     19 C         8.726345   -5.624136   -3.957315 C.ar        1 UNL1     -0.0516
     20 C         10.001917   -5.344322   -3.452753 C.ar        1 UNL1     -0.0198
     21 C         10.212469   -4.189931   -2.720034 C.ar        1 UNL1     0.1169
     22 C         9.180787   -3.283449   -2.513243 C.ar        1 UNL1     -0.0198
     23 C         7.909461   -3.553999   -3.033425 C.ar        1 UNL1     -0.0516
     24 O         11.459082   -3.969558   -2.212302 O.3        1 UNL1     -0.5068
     25 O         6.158215   -8.062308   -2.329391 O.2        1 UNL1     -0.2917
     26 O         4.919672   -7.464401   -0.010544 O.3        1 UNL1     -0.5058
     27 O         1.118209   -1.440653   -1.795567 O.3        1 UNL1     -0.3648
     28 O         -1.575289   -1.174654   0.591165 O.3        1 UNL1     -0.3841
     29 O         1.791069   -0.550781   1.653831 O.3        1 UNL1     -0.3863
     30 O         -0.36014   -3.480566   2.191202 O.3        1 UNL1     -0.3829
     31 H         -0.748404   -2.075474   -1.494331 H        1 UNL1     0.0937
     32 H         0.0   0.0   0.0 H        1 UNL1     0.0671
     33 H         -0.018468   -1.00716   2.429093 H        1 UNL1     0.0649
     34 H         1.586218   -2.976191   2.602578 H        1 UNL1     0.0683
     35 H         1.377725   -4.58692   0.765098 H        1 UNL1     0.1085
     36 H         3.508722   -5.649266   1.094813 H        1 UNL1     0.0691
     37 H         3.740673   -2.850452   -2.182844 H        1 UNL1     0.0691
     38 H         5.01094   -6.82568   -4.704075 H        1 UNL1     0.0385
     39 H         6.74272   -7.2039   -4.623883 H        1 UNL1     0.0385
     40 H         6.264332   -4.825565   -5.319593 H        1 UNL1     0.0789
     41 H         8.584783   -6.541349   -4.521523 H        1 UNL1     0.0623
     42 H         10.820576   -6.039785   -3.6205 H        1 UNL1     0.0654
     43 H         9.338265   -2.36909   -1.953726 H        1 UNL1     0.0654
     44 H         7.12933   -2.818633   -2.861733 H        1 UNL1     0.0623
     45 H         11.783475   -4.798704   -1.825001 H        1 UNL1     0.2921
     46 H         4.899321   -8.173952   -0.672008 H        1 UNL1     0.2922
     47 H         0.840359   -0.560628   -2.085767 H        1 UNL1     0.2126
     48 H         -2.059072   -0.731217   -0.132057 H        1 UNL1     0.2101
     49 H         2.552588   -1.076405   1.36125 H        1 UNL1     0.2100
     50 H         -0.595217   -3.153756   3.084312 H        1 UNL1     0.2102
@<TRIPOS>BOND
     1     1     2    1
     2     1     6    1
     3     2     3    1
     4     3     4    1
     5     3    29    1
     6     3    33    1
     7     4     5    1
     8     5     6    1
     9     5     7    1
    10     5    35    1
    11     7     8    1
    12     8     9   ar
    13     8    13   ar
    14     9    10   ar
    15     9    36    1
    16    10    11   ar
    17    10    26    1
    18    11    12   ar
    19    11    14    1
    20    12    13   ar
    21    12    17    1
    22    13    37    1
    23    14    15    1
    24    14    25    2
    25    15    16    1
    26    15    38    1
    27    15    39    1
    28    16    17    1
    29    16    18    1
    30    16    40    1
    31    18    19   ar
    32    18    23   ar
    33    19    20   ar
    34    19    41    1
    35    20    21   ar
    36    20    42    1
    37    21    22   ar
    38    21    24    1
    39    22    23   ar
    40    22    43    1
    41    23    44    1
    42    24    45    1
    43    26    46    1
    44    27    47    1
    45    28    48    1
    46    29    49    1
    47    30    50    1
    48     1    31    1
    49     1    27    1
    50     2    32    1
    51     2    28    1
    52     4    34    1
    53     4    30    1
