@<TRIPOS>MOLECULE
*****
 50 53 0 0 0
SMALL
GASTEIGER

@<TRIPOS>ATOM
     1 C         -1.260947   -1.724716   -0.454059 C.3        1 UNL1     0.1889
     2 C         -0.859809   -0.236492   -0.639032 C.3        1 UNL1     0.1342
     3 C         -1.985325   0.770747   -0.357697 C.3        1 UNL1     0.1174
     4 C         -3.36453   0.249913   -0.769575 C.3        1 UNL1     0.1456
     5 C         -3.616686   -1.192687   -0.294513 C.3        1 UNL1     0.2326
     6 O         -2.598644   -2.054988   -0.7974 O.3        1 UNL1     -0.3076
     7 O         -3.800226   -1.303711   1.12862 O.3        1 UNL1     -0.4605
     8 C         -2.64837   -1.463497   1.877768 C.ar        1 UNL1     0.1310
     9 C         -2.227176   -0.615124   2.907409 C.ar        1 UNL1     0.0226
     10 C         -1.050485   -0.871978   3.621081 C.ar        1 UNL1     0.1343
     11 C         -0.278144   -1.997673   3.337987 C.ar        1 UNL1     0.1007
     12 C         -0.666738   -2.829823   2.284752 C.ar        1 UNL1     0.1389
     13 C         -1.84853   -2.569889   1.565562 C.ar        1 UNL1     0.0229
     14 C         0.928637   -2.362645   4.115566 C.2        1 UNL1     0.1740
     15 C         1.506117   -3.715901   3.821006 C.3        1 UNL1     0.0520
     16 C         1.44127   -3.950664   2.318129 C.3        1 UNL1     0.1322
     17 O         0.075283   -3.903538   1.850234 O.3        1 UNL1     -0.4828
     18 C         2.416566   -3.08514   1.516637 C.ar        1 UNL1     -0.0067
     19 C         2.932204   -3.570578   0.297342 C.ar        1 UNL1     -0.0516
     20 C         3.862324   -2.825032   -0.436825 C.ar        1 UNL1     -0.0198
     21 C         4.289351   -1.598678   0.040177 C.ar        1 UNL1     0.1169
     22 C         3.77464   -1.078938   1.220763 C.ar        1 UNL1     -0.0198
     23 C         2.830648   -1.815989   1.945808 C.ar        1 UNL1     -0.0516
     24 O         5.22448   -0.918206   -0.682936 O.3        1 UNL1     -0.5068
     25 O         1.398617   -1.657914   5.004924 O.2        1 UNL1     -0.2917
     26 O         -0.694834   -0.004978   4.61275 O.3        1 UNL1     -0.5058
     27 O         -0.898837   -2.254797   0.81112 O.3        1 UNL1     -0.3648
     28 O         -0.442644   -0.042714   -2.003264 O.3        1 UNL1     -0.3841
     29 O         -1.943318   1.211608   1.000982 O.3        1 UNL1     -0.3863
     30 O         -3.475875   0.290689   -2.208891 O.3        1 UNL1     -0.3829
     31 H         -0.663398   -2.300941   -1.168887 H        1 UNL1     0.0937
     32 H         0.0   0.0   0.0 H        1 UNL1     0.0671
     33 H         -1.791071   1.668038   -0.961728 H        1 UNL1     0.0649
     34 H         -4.146443   0.9045   -0.368915 H        1 UNL1     0.0683
     35 H         -4.550975   -1.476486   -0.794954 H        1 UNL1     0.1085
     36 H         -2.812568   0.245215   3.212781 H        1 UNL1     0.0691
     37 H         -2.1285   -3.232394   0.749353 H        1 UNL1     0.0691
     38 H         0.907801   -4.456327   4.362591 H        1 UNL1     0.0385
     39 H         2.531777   -3.759355   4.202989 H        1 UNL1     0.0385
     40 H         1.757412   -4.987147   2.138471 H        1 UNL1     0.0789
     41 H         2.619801   -4.534408   -0.093921 H        1 UNL1     0.0623
     42 H         4.261522   -3.215528   -1.369652 H        1 UNL1     0.0654
     43 H         4.09085   -0.112872   1.595779 H        1 UNL1     0.0654
     44 H         2.441811   -1.374721   2.85846 H        1 UNL1     0.0623
     45 H         5.819706   -0.464308   -0.064552 H        1 UNL1     0.2921
     46 H         -0.492224   -0.502873   5.420501 H        1 UNL1     0.2922
     47 H         -0.806949   -3.216323   0.757411 H        1 UNL1     0.2126
     48 H         -1.244848   -0.12045   -2.55477 H        1 UNL1     0.2101
     49 H         -1.741081   0.463154   1.584687 H        1 UNL1     0.2100
     50 H         -4.414136   0.460066   -2.434036 H        1 UNL1     0.2102
@<TRIPOS>BOND
     1     1     2    1
     2     1     6    1
     3     2     3    1
     4     3     4    1
     5     3    29    1
     6     3    33    1
     7     4     5    1
     8     5     6    1
     9     5     7    1
    10     5    35    1
    11     7     8    1
    12     8     9   ar
    13     8    13   ar
    14     9    10   ar
    15     9    36    1
    16    10    11   ar
    17    10    26    1
    18    11    12   ar
    19    11    14    1
    20    12    13   ar
    21    12    17    1
    22    13    37    1
    23    14    15    1
    24    14    25    2
    25    15    16    1
    26    15    38    1
    27    15    39    1
    28    16    17    1
    29    16    18    1
    30    16    40    1
    31    18    19   ar
    32    18    23   ar
    33    19    20   ar
    34    19    41    1
    35    20    21   ar
    36    20    42    1
    37    21    22   ar
    38    21    24    1
    39    22    23   ar
    40    22    43    1
    41    23    44    1
    42    24    45    1
    43    26    46    1
    44    27    47    1
    45    28    48    1
    46    29    49    1
    47    30    50    1
    48     1    31    1
    49     1    27    1
    50     2    32    1
    51     2    28    1
    52     4    34    1
    53     4    30    1
