@<TRIPOS>MOLECULE
*****
 50 53 0 0 0
SMALL
GASTEIGER

@<TRIPOS>ATOM
     1 C         -0.227091   -1.530373   1.541815 C.3        1 UNL1     0.1889
     2 C         -0.813877   -0.502547   0.537228 C.3        1 UNL1     0.1342
     3 C         -1.729119   0.558793   1.166795 C.3        1 UNL1     0.1174
     4 C         -2.552277   0.014083   2.33676 C.3        1 UNL1     0.1456
     5 C         -1.704686   -0.813876   3.319836 C.3        1 UNL1     0.2326
     6 O         -1.068295   -1.886531   2.628977 O.3        1 UNL1     -0.3076
     7 O         -0.790181   -0.020103   4.097606 O.3        1 UNL1     -0.4605
     8 C         0.042208   -0.718664   4.953567 C.ar        1 UNL1     0.1310
     9 C         0.08926   -2.111088   5.081015 C.ar        1 UNL1     0.0226
     10 C         0.9817   -2.727057   5.966474 C.ar        1 UNL1     0.1343
     11 C         1.866199   -1.965772   6.729328 C.ar        1 UNL1     0.1007
     12 C         1.800274   -0.572709   6.640944 C.ar        1 UNL1     0.1389
     13 C         0.901017   0.046503   5.752494 C.ar        1 UNL1     0.0229
     14 C         2.886963   -2.567581   7.618159 C.2        1 UNL1     0.1740
     15 C         3.895622   -1.613729   8.187652 C.3        1 UNL1     0.0520
     16 C         3.177733   -0.328484   8.575902 C.3        1 UNL1     0.1322
     17 O         2.548351   0.275309   7.424215 O.3        1 UNL1     -0.4828
     18 C         2.262488   -0.477646   9.793606 C.ar        1 UNL1     -0.0067
     19 C         2.831572   -0.696282   11.065044 C.ar        1 UNL1     -0.0516
     20 C         2.022048   -0.884173   12.19169 C.ar        1 UNL1     -0.0198
     21 C         0.645165   -0.863045   12.05912 C.ar        1 UNL1     0.1169
     22 C         0.055378   -0.616667   10.826121 C.ar        1 UNL1     -0.0198
     23 C         0.864782   -0.410384   9.702569 C.ar        1 UNL1     -0.0516
     24 O         -0.111005   -1.087569   13.171863 O.3        1 UNL1     -0.5068
     25 O         2.974005   -3.774648   7.82768 O.2        1 UNL1     -0.2917
     26 O         0.976746   -4.089227   6.044277 O.3        1 UNL1     -0.5058
     27 O         1.084396   -1.209609   1.977591 O.3        1 UNL1     -0.3648
     28 O         -1.5938   -1.21498   -0.440967 O.3        1 UNL1     -0.3841
     29 O         -0.98573   1.729732   1.510896 O.3        1 UNL1     -0.3863
     30 O         -3.612951   -0.819983   1.821983 O.3        1 UNL1     -0.3829
     31 H         -0.106386   -2.470601   0.992742 H        1 UNL1     0.0937
     32 H         0.0   0.0   0.0 H        1 UNL1     0.0671
     33 H         -2.444794   0.882891   0.398361 H        1 UNL1     0.0649
     34 H         -3.027693   0.840628   2.876392 H        1 UNL1     0.0683
     35 H         -2.444796   -1.263124   3.993849 H        1 UNL1     0.1085
     36 H         -0.533212   -2.760487   4.475268 H        1 UNL1     0.0691
     37 H         0.868498   1.132785   5.703211 H        1 UNL1     0.0691
     38 H         4.648642   -1.42742   7.414492 H        1 UNL1     0.0385
     39 H         4.392492   -2.084926   9.042563 H        1 UNL1     0.0385
     40 H         3.948007   0.393931   8.878086 H        1 UNL1     0.0789
     41 H         3.909602   -0.726444   11.193855 H        1 UNL1     0.0623
     42 H         2.472778   -1.063755   13.164626 H        1 UNL1     0.0654
     43 H         -1.021727   -0.583046   10.713761 H        1 UNL1     0.0654
     44 H         0.370294   -0.21004   8.756953 H        1 UNL1     0.0623
     45 H         -0.548902   -1.948879   13.076429 H        1 UNL1     0.2921
     46 H         0.178246   -4.434891   5.614946 H        1 UNL1     0.2922
     47 H         1.158202   -0.259927   2.146461 H        1 UNL1     0.2126
     48 H         -0.961526   -1.713415   -0.993709 H        1 UNL1     0.2101
     49 H         -1.280366   2.066472   2.372052 H        1 UNL1     0.2100
     50 H         -4.239208   -0.245134   1.335092 H        1 UNL1     0.2102
@<TRIPOS>BOND
     1     1     2    1
     2     1     6    1
     3     2     3    1
     4     3     4    1
     5     3    29    1
     6     3    33    1
     7     4     5    1
     8     5     6    1
     9     5     7    1
    10     5    35    1
    11     7     8    1
    12     8     9   ar
    13     8    13   ar
    14     9    10   ar
    15     9    36    1
    16    10    11   ar
    17    10    26    1
    18    11    12   ar
    19    11    14    1
    20    12    13   ar
    21    12    17    1
    22    13    37    1
    23    14    15    1
    24    14    25    2
    25    15    16    1
    26    15    38    1
    27    15    39    1
    28    16    17    1
    29    16    18    1
    30    16    40    1
    31    18    19   ar
    32    18    23   ar
    33    19    20   ar
    34    19    41    1
    35    20    21   ar
    36    20    42    1
    37    21    22   ar
    38    21    24    1
    39    22    23   ar
    40    22    43    1
    41    23    44    1
    42    24    45    1
    43    26    46    1
    44    27    47    1
    45    28    48    1
    46    29    49    1
    47    30    50    1
    48     1    31    1
    49     1    27    1
    50     2    32    1
    51     2    28    1
    52     4    34    1
    53     4    30    1
