@<TRIPOS>MOLECULE
*****
 50 53 0 0 0
SMALL
GASTEIGER

@<TRIPOS>ATOM
     1 C         -0.944894   -1.964748   0.133212 C.3        1 UNL1     0.1889
     2 C         -0.015074   -0.853089   0.689619 C.3        1 UNL1     0.1342
     3 C         1.428602   -1.301986   0.963038 C.3        1 UNL1     0.1174
     4 C         1.517157   -2.748756   1.455108 C.3        1 UNL1     0.1456
     5 C         0.659694   -3.711818   0.613899 C.3        1 UNL1     0.2326
     6 O         -0.698636   -3.278452   0.612726 O.3        1 UNL1     -0.3076
     7 O         1.182278   -3.939109   -0.707678 O.3        1 UNL1     -0.4605
     8 C         0.971491   -5.2008   -1.234207 C.ar        1 UNL1     0.1310
     9 C         -0.173172   -5.608683   -1.927516 C.ar        1 UNL1     0.0226
     10 C         -0.285391   -6.907106   -2.438795 C.ar        1 UNL1     0.1343
     11 C         0.755342   -7.82279   -2.289667 C.ar        1 UNL1     0.1007
     12 C         1.886341   -7.439961   -1.563674 C.ar        1 UNL1     0.1389
     13 C         1.997826   -6.135176   -1.047401 C.ar        1 UNL1     0.0229
     14 C         0.724711   -9.180195   -2.881839 C.2        1 UNL1     0.1740
     15 C         2.012627   -9.947187   -2.814426 C.3        1 UNL1     0.0520
     16 C         2.650251   -9.699512   -1.45426 C.3        1 UNL1     0.1322
     17 O         2.922584   -8.293564   -1.263959 O.3        1 UNL1     -0.4828
     18 C         1.904987   -10.364003   -0.294192 C.ar        1 UNL1     -0.0067
     19 C         1.096174   -11.491277   -0.545768 C.ar        1 UNL1     -0.0516
     20 C         0.363853   -12.094134   0.483907 C.ar        1 UNL1     -0.0198
     21 C         0.425976   -11.575914   1.765085 C.ar        1 UNL1     0.1169
     22 C         1.239608   -10.487233   2.050767 C.ar        1 UNL1     -0.0198
     23 C         1.986391   -9.895485   1.024996 C.ar        1 UNL1     -0.0516
     24 O         -0.330494   -12.166332   2.734394 O.3        1 UNL1     -0.5068
     25 O         -0.252127   -9.640786   -3.466756 O.2        1 UNL1     -0.2917
     26 O         -1.4284   -7.242136   -3.104281 O.3        1 UNL1     -0.5058
     27 O         -1.074824   -1.938569   -1.27931 O.3        1 UNL1     -0.3648
     28 O         -0.561029   -0.383447   1.936244 O.3        1 UNL1     -0.3841
     29 O         2.260982   -1.051241   -0.171159 O.3        1 UNL1     -0.3863
     30 O         1.072809   -2.81028   2.827864 O.3        1 UNL1     -0.3829
     31 H         -1.952665   -1.742688   0.500862 H        1 UNL1     0.0937
     32 H         0.0   0.0   0.0 H        1 UNL1     0.0671
     33 H         1.830544   -0.668119   1.765767 H        1 UNL1     0.0649
     34 H         2.55958   -3.085703   1.440208 H        1 UNL1     0.0683
     35 H         0.693293   -4.654355   1.174589 H        1 UNL1     0.1085
     36 H         -0.993241   -4.927115   -2.125187 H        1 UNL1     0.0691
     37 H         2.88813   -5.862327   -0.484902 H        1 UNL1     0.0691
     38 H         2.655952   -9.585985   -3.623865 H        1 UNL1     0.0385
     39 H         1.807573   -11.009007   -2.98841 H        1 UNL1     0.0385
     40 H         3.641968   -10.171466   -1.47089 H        1 UNL1     0.0789
     41 H         1.023343   -11.911453   -1.544667 H        1 UNL1     0.0623
     42 H         -0.265505   -12.955657   0.274863 H        1 UNL1     0.0654
     43 H         1.307339   -10.08262   3.053569 H        1 UNL1     0.0654
     44 H         2.619624   -9.053064   1.28612 H        1 UNL1     0.0623
     45 H         0.181861   -12.177396   3.559068 H        1 UNL1     0.2921
     46 H         -1.697127   -6.506125   -3.676545 H        1 UNL1     0.2922
     47 H         -0.377441   -2.468856   -1.689571 H        1 UNL1     0.2126
     48 H         -0.112391   -0.884362   2.644439 H        1 UNL1     0.2101
     49 H         1.8141   -0.442059   -0.780246 H        1 UNL1     0.2100
     50 H         1.818841   -2.532832   3.398979 H        1 UNL1     0.2102
@<TRIPOS>BOND
     1     1     2    1
     2     1     6    1
     3     2     3    1
     4     3     4    1
     5     3    29    1
     6     3    33    1
     7     4     5    1
     8     5     6    1
     9     5     7    1
    10     5    35    1
    11     7     8    1
    12     8     9   ar
    13     8    13   ar
    14     9    10   ar
    15     9    36    1
    16    10    11   ar
    17    10    26    1
    18    11    12   ar
    19    11    14    1
    20    12    13   ar
    21    12    17    1
    22    13    37    1
    23    14    15    1
    24    14    25    2
    25    15    16    1
    26    15    38    1
    27    15    39    1
    28    16    17    1
    29    16    18    1
    30    16    40    1
    31    18    19   ar
    32    18    23   ar
    33    19    20   ar
    34    19    41    1
    35    20    21   ar
    36    20    42    1
    37    21    22   ar
    38    21    24    1
    39    22    23   ar
    40    22    43    1
    41    23    44    1
    42    24    45    1
    43    26    46    1
    44    27    47    1
    45    28    48    1
    46    29    49    1
    47    30    50    1
    48     1    31    1
    49     1    27    1
    50     2    32    1
    51     2    28    1
    52     4    34    1
    53     4    30    1
