@<TRIPOS>MOLECULE
*****
 50 53 0 0 0
SMALL
GASTEIGER

@<TRIPOS>ATOM
     1 C         -0.390485   -1.381193   1.6464 C.3        1 UNL1     0.1889
     2 C         -0.492278   -0.96835   0.15337 C.3        1 UNL1     0.1342
     3 C         -1.925478   -0.894351   -0.395199 C.3        1 UNL1     0.1174
     4 C         -2.849516   -1.951713   0.214112 C.3        1 UNL1     0.1456
     5 C         -2.717627   -2.038907   1.745571 C.3        1 UNL1     0.2326
     6 O         -1.363884   -2.309142   2.102251 O.3        1 UNL1     -0.3076
     7 O         -3.267852   -0.901086   2.434001 O.3        1 UNL1     -0.4605
     8 C         -3.809529   -1.151332   3.681995 C.ar        1 UNL1     0.1310
     9 C         -5.109468   -1.608185   3.924366 C.ar        1 UNL1     0.0226
     10 C         -5.560795   -1.848929   5.227534 C.ar        1 UNL1     0.1343
     11 C         -4.714536   -1.661192   6.319524 C.ar        1 UNL1     0.1007
     12 C         -3.427533   -1.166096   6.093054 C.ar        1 UNL1     0.1389
     13 C         -2.974832   -0.921588   4.782822 C.ar        1 UNL1     0.0229
     14 C         -5.111931   -1.979829   7.710459 C.2        1 UNL1     0.1740
     15 C         -4.010248   -1.930303   8.728 C.3        1 UNL1     0.0520
     16 C         -3.12448   -0.730651   8.421068 C.3        1 UNL1     0.1322
     17 O         -2.548813   -0.842715   7.100795 O.3        1 UNL1     -0.4828
     18 C         -3.79011   0.616878   8.71059 C.ar        1 UNL1     -0.0067
     19 C         -3.318112   1.407159   9.778714 C.ar        1 UNL1     -0.0516
     20 C         -3.934482   2.622339   10.100256 C.ar        1 UNL1     -0.0198
     21 C         -5.025788   3.053732   9.367604 C.ar        1 UNL1     0.1169
     22 C         -5.49283   2.313871   8.289032 C.ar        1 UNL1     -0.0198
     23 C         -4.86513   1.107662   7.955702 C.ar        1 UNL1     -0.0516
     24 O         -5.623691   4.223689   9.733819 O.3        1 UNL1     -0.5068
     25 O         -6.242734   -2.342033   8.02443 O.2        1 UNL1     -0.2917
     26 O         -6.840035   -2.292541   5.395873 O.3        1 UNL1     -0.5058
     27 O         -0.263365   -0.27883   2.530381 O.3        1 UNL1     -0.3648
     28 O         0.219607   -1.938071   -0.637559 O.3        1 UNL1     -0.3841
     29 O         -2.446373   0.430979   -0.275614 O.3        1 UNL1     -0.3863
     30 O         -2.532535   -3.241441   -0.353174 O.3        1 UNL1     -0.3829
     31 H         0.553719   -1.925602   1.756752 H        1 UNL1     0.0937
     32 H         0.0   0.0   0.0 H        1 UNL1     0.0671
     33 H         -1.882024   -1.094445   -1.474918 H        1 UNL1     0.0649
     34 H         -3.890912   -1.733717   -0.04737 H        1 UNL1     0.0683
     35 H         -3.301244   -2.929292   2.011062 H        1 UNL1     0.1085
     36 H         -5.797272   -1.826731   3.11487 H        1 UNL1     0.0691
     37 H         -1.968892   -0.535271   4.633368 H        1 UNL1     0.0691
     38 H         -3.447177   -2.866652   8.652317 H        1 UNL1     0.0385
     39 H         -4.449306   -1.875234   9.729985 H        1 UNL1     0.0385
     40 H         -2.263477   -0.781548   9.101218 H        1 UNL1     0.0789
     41 H         -2.468834   1.086138   10.374804 H        1 UNL1     0.0623
     42 H         -3.568622   3.216935   10.93369 H        1 UNL1     0.0654
     43 H         -6.33731   2.649778   7.699176 H        1 UNL1     0.0654
     44 H         -5.249789   0.560596   7.100365 H        1 UNL1     0.0623
     45 H         -5.38096   4.417326   10.653767 H        1 UNL1     0.2921
     46 H         -6.863676   -2.948109   6.110773 H        1 UNL1     0.2922
     47 H         0.459253   0.297579   2.24501 H        1 UNL1     0.2126
     48 H         1.170755   -1.787614   -0.475039 H        1 UNL1     0.2101
     49 H         -3.002169   0.496833   0.517196 H        1 UNL1     0.2100
     50 H         -2.780671   -3.223273   -1.300703 H        1 UNL1     0.2102
@<TRIPOS>BOND
     1     1     2    1
     2     1     6    1
     3     2     3    1
     4     3     4    1
     5     3    29    1
     6     3    33    1
     7     4     5    1
     8     5     6    1
     9     5     7    1
    10     5    35    1
    11     7     8    1
    12     8     9   ar
    13     8    13   ar
    14     9    10   ar
    15     9    36    1
    16    10    11   ar
    17    10    26    1
    18    11    12   ar
    19    11    14    1
    20    12    13   ar
    21    12    17    1
    22    13    37    1
    23    14    15    1
    24    14    25    2
    25    15    16    1
    26    15    38    1
    27    15    39    1
    28    16    17    1
    29    16    18    1
    30    16    40    1
    31    18    19   ar
    32    18    23   ar
    33    19    20   ar
    34    19    41    1
    35    20    21   ar
    36    20    42    1
    37    21    22   ar
    38    21    24    1
    39    22    23   ar
    40    22    43    1
    41    23    44    1
    42    24    45    1
    43    26    46    1
    44    27    47    1
    45    28    48    1
    46    29    49    1
    47    30    50    1
    48     1    31    1
    49     1    27    1
    50     2    32    1
    51     2    28    1
    52     4    34    1
    53     4    30    1
