@<TRIPOS>MOLECULE
*****
 50 53 0 0 0
SMALL
GASTEIGER

@<TRIPOS>ATOM
     1 C         1.301422   -1.752976   -0.064652 C.3        1 UNL1     0.1889
     2 C         0.299104   -0.767914   -0.72416 C.3        1 UNL1     0.1342
     3 C         -0.9613   -1.427996   -1.303933 C.3        1 UNL1     0.1174
     4 C         -0.688142   -2.814734   -1.891692 C.3        1 UNL1     0.1456
     5 C         0.164631   -3.693713   -0.958667 C.3        1 UNL1     0.2326
     6 O         1.395325   -3.037302   -0.663052 O.3        1 UNL1     -0.3076
     7 O         -0.539429   -4.132423   0.217409 O.3        1 UNL1     -0.4605
     8 C         -1.719169   -4.820119   -0.003531 C.ar        1 UNL1     0.1310
     9 C         -2.046606   -6.064702   0.545195 C.ar        1 UNL1     0.0226
     10 C         -3.277571   -6.673916   0.274116 C.ar        1 UNL1     0.1343
     11 C         -4.221554   -6.04169   -0.533985 C.ar        1 UNL1     0.1007
     12 C         -3.889711   -4.817591   -1.120708 C.ar        1 UNL1     0.1389
     13 C         -2.650866   -4.206469   -0.850107 C.ar        1 UNL1     0.0229
     14 C         -5.569962   -6.600806   -0.785661 C.2        1 UNL1     0.1740
     15 C         -6.530342   -5.687865   -1.489762 C.3        1 UNL1     0.0520
     16 C         -5.774485   -4.942637   -2.581217 C.3        1 UNL1     0.1322
     17 O         -4.69932   -4.159633   -2.017308 O.3        1 UNL1     -0.4828
     18 C         -5.363801   -5.827624   -3.760565 C.ar        1 UNL1     -0.0067
     19 C         -6.196402   -6.898419   -4.145773 C.ar        1 UNL1     -0.0516
     20 C         -5.827524   -7.755744   -5.18927 C.ar        1 UNL1     -0.0198
     21 C         -4.627817   -7.557747   -5.849062 C.ar        1 UNL1     0.1169
     22 C         -3.802416   -6.491988   -5.514831 C.ar        1 UNL1     -0.0198
     23 C         -4.17978   -5.623498   -4.483629 C.ar        1 UNL1     -0.0516
     24 O         -4.284187   -8.435515   -6.834884 O.3        1 UNL1     -0.5068
     25 O         -5.930001   -7.704359   -0.38438 O.2        1 UNL1     -0.2917
     26 O         -3.53491   -7.88866   0.839588 O.3        1 UNL1     -0.5058
     27 O         1.16362   -1.840612   1.344645 O.3        1 UNL1     -0.3648
     28 O         0.967017   -0.094736   -1.80741 O.3        1 UNL1     -0.3841
     29 O         -2.018937   -1.432737   -0.342936 O.3        1 UNL1     -0.3863
     30 O         0.003377   -2.667689   -3.151005 O.3        1 UNL1     -0.3829
     31 H         2.300376   -1.328175   -0.212012 H        1 UNL1     0.0937
     32 H         -0.0   0.0   0.0 H        1 UNL1     0.0671
     33 H         -1.320212   -0.797901   -2.129695 H        1 UNL1     0.0649
     34 H         -1.634692   -3.324283   -2.103364 H        1 UNL1     0.0683
     35 H         0.409771   -4.570007   -1.571768 H        1 UNL1     0.1085
     36 H         -1.378714   -6.581359   1.225714 H        1 UNL1     0.0691
     37 H         -2.4162   -3.253866   -1.320185 H        1 UNL1     0.0691
     38 H         -6.934332   -4.994011   -0.744855 H        1 UNL1     0.0385
     39 H         -7.359888   -6.280018   -1.890992 H        1 UNL1     0.0385
     40 H         -6.46419   -4.198749   -3.002474 H        1 UNL1     0.0789
     41 H         -7.138837   -7.080496   -3.637525 H        1 UNL1     0.0623
     42 H         -6.472513   -8.585026   -5.469078 H        1 UNL1     0.0654
     43 H         -2.867888   -6.318796   -6.034995 H        1 UNL1     0.0654
     44 H         -3.515819   -4.795111   -4.256084 H        1 UNL1     0.0623
     45 H         -4.86672   -9.209804   -6.772851 H        1 UNL1     0.2921
     46 H         -2.69777   -8.340449   1.030624 H        1 UNL1     0.2922
     47 H         1.278596   -0.968482   1.747174 H        1 UNL1     0.2126
     48 H         0.560922   0.790496   -1.879401 H        1 UNL1     0.2101
     49 H         -1.793824   -0.848368   0.398435 H        1 UNL1     0.2100
     50 H         -0.26759   -3.408407   -3.732061 H        1 UNL1     0.2102
@<TRIPOS>BOND
     1     1     2    1
     2     1     6    1
     3     2     3    1
     4     3     4    1
     5     3    29    1
     6     3    33    1
     7     4     5    1
     8     5     6    1
     9     5     7    1
    10     5    35    1
    11     7     8    1
    12     8     9   ar
    13     8    13   ar
    14     9    10   ar
    15     9    36    1
    16    10    11   ar
    17    10    26    1
    18    11    12   ar
    19    11    14    1
    20    12    13   ar
    21    12    17    1
    22    13    37    1
    23    14    15    1
    24    14    25    2
    25    15    16    1
    26    15    38    1
    27    15    39    1
    28    16    17    1
    29    16    18    1
    30    16    40    1
    31    18    19   ar
    32    18    23   ar
    33    19    20   ar
    34    19    41    1
    35    20    21   ar
    36    20    42    1
    37    21    22   ar
    38    21    24    1
    39    22    23   ar
    40    22    43    1
    41    23    44    1
    42    24    45    1
    43    26    46    1
    44    27    47    1
    45    28    48    1
    46    29    49    1
    47    30    50    1
    48     1    31    1
    49     1    27    1
    50     2    32    1
    51     2    28    1
    52     4    34    1
    53     4    30    1
