@<TRIPOS>MOLECULE
*****
 50 53 0 0 0
SMALL
GASTEIGER

@<TRIPOS>ATOM
     1 C         1.821333   1.202197   -0.090945 C.3        1 UNL1     0.1889
     2 C         0.849063   0.2453   0.649986 C.3        1 UNL1     0.1342
     3 C         0.317341   0.781325   1.988049 C.3        1 UNL1     0.1174
     4 C         1.348642   1.625253   2.741255 C.3        1 UNL1     0.1456
     5 C         2.046658   2.653686   1.832704 C.3        1 UNL1     0.2326
     6 O         2.667224   1.989653   0.734148 O.3        1 UNL1     -0.3076
     7 O         1.189167   3.736472   1.428224 O.3        1 UNL1     -0.4605
     8 C         -0.061724   3.376665   0.959889 C.ar        1 UNL1     0.1310
     9 C         -1.148174   4.243847   0.802017 C.ar        1 UNL1     0.0226
     10 C         -2.373127   3.785821   0.302413 C.ar        1 UNL1     0.1343
     11 C         -2.534234   2.453136   -0.074199 C.ar        1 UNL1     0.1007
     12 C         -1.469261   1.568854   0.117273 C.ar        1 UNL1     0.1389
     13 C         -0.238509   2.029083   0.622118 C.ar        1 UNL1     0.0229
     14 C         -3.779489   1.934014   -0.685759 C.2        1 UNL1     0.1740
     15 C         -3.701713   0.538776   -1.232395 C.3        1 UNL1     0.0520
     16 C         -2.888638   -0.312363   -0.266772 C.3        1 UNL1     0.1322
     17 O         -1.552354   0.216025   -0.11771 O.3        1 UNL1     -0.4828
     18 C         -3.606789   -0.602971   1.053278 C.ar        1 UNL1     -0.0067
     19 C         -2.912464   -0.44067   2.269742 C.ar        1 UNL1     -0.0516
     20 C         -3.524455   -0.743097   3.492021 C.ar        1 UNL1     -0.0198
     21 C         -4.824925   -1.214537   3.510706 C.ar        1 UNL1     0.1169
     22 C         -5.545794   -1.353034   2.331721 C.ar        1 UNL1     -0.0198
     23 C         -4.940227   -1.033141   1.11065 C.ar        1 UNL1     -0.0516
     24 O         -5.375112   -1.534528   4.717065 O.3        1 UNL1     -0.5068
     25 O         -4.797543   2.607422   -0.822042 O.2        1 UNL1     -0.2917
     26 O         -3.393514   4.6824   0.173797 O.3        1 UNL1     -0.5058
     27 O         1.190785   1.984533   -1.092517 O.3        1 UNL1     -0.3648
     28 O         1.542992   -0.985353   0.926867 O.3        1 UNL1     -0.3841
     29 O         -0.925966   1.461301   1.803782 O.3        1 UNL1     -0.3863
     30 O         2.349754   0.753497   3.310031 O.3        1 UNL1     -0.3829
     31 H         2.522159   0.568419   -0.645244 H        1 UNL1     0.0937
     32 H         -0.0   0.0   0.0 H        1 UNL1     0.0671
     33 H         0.085684   -0.082275   2.626994 H        1 UNL1     0.0649
     34 H         0.867135   2.147544   3.575381 H        1 UNL1     0.0683
     35 H         2.852838   3.055805   2.459005 H        1 UNL1     0.1085
     36 H         -1.069712   5.302484   1.023945 H        1 UNL1     0.0691
     37 H         0.574691   1.320279   0.76282 H        1 UNL1     0.0691
     38 H         -3.218219   0.593971   -2.213575 H        1 UNL1     0.0385
     39 H         -4.716524   0.151068   -1.372468 H        1 UNL1     0.0385
     40 H         -2.744953   -1.292506   -0.741318 H        1 UNL1     0.0789
     41 H         -1.887737   -0.080873   2.281226 H        1 UNL1     0.0623
     42 H         -2.974563   -0.625066   4.422451 H        1 UNL1     0.0654
     43 H         -6.56977   -1.7071   2.33605 H        1 UNL1     0.0654
     44 H         -5.536439   -1.143266   0.209957 H        1 UNL1     0.0623
     45 H         -6.010457   -0.840993   4.958024 H        1 UNL1     0.2921
     46 H         -3.967102   4.633972   0.954862 H        1 UNL1     0.2922
     47 H         1.837486   2.559873   -1.524514 H        1 UNL1     0.2126
     48 H         0.92815   -1.543636   1.440698 H        1 UNL1     0.2101
     49 H         -1.54488   1.214385   2.509311 H        1 UNL1     0.2100
     50 H         2.199593   0.712618   4.27724 H        1 UNL1     0.2102
@<TRIPOS>BOND
     1     1     2    1
     2     1     6    1
     3     2     3    1
     4     3     4    1
     5     3    29    1
     6     3    33    1
     7     4     5    1
     8     5     6    1
     9     5     7    1
    10     5    35    1
    11     7     8    1
    12     8     9   ar
    13     8    13   ar
    14     9    10   ar
    15     9    36    1
    16    10    11   ar
    17    10    26    1
    18    11    12   ar
    19    11    14    1
    20    12    13   ar
    21    12    17    1
    22    13    37    1
    23    14    15    1
    24    14    25    2
    25    15    16    1
    26    15    38    1
    27    15    39    1
    28    16    17    1
    29    16    18    1
    30    16    40    1
    31    18    19   ar
    32    18    23   ar
    33    19    20   ar
    34    19    41    1
    35    20    21   ar
    36    20    42    1
    37    21    22   ar
    38    21    24    1
    39    22    23   ar
    40    22    43    1
    41    23    44    1
    42    24    45    1
    43    26    46    1
    44    27    47    1
    45    28    48    1
    46    29    49    1
    47    30    50    1
    48     1    31    1
    49     1    27    1
    50     2    32    1
    51     2    28    1
    52     4    34    1
    53     4    30    1
