@<TRIPOS>MOLECULE
*****
 50 53 0 0 0
SMALL
GASTEIGER

@<TRIPOS>ATOM
     1 C         1.947453   -0.289697   -0.945678 C.3        1 UNL1     0.1889
     2 C         0.415417   -0.527782   -0.867431 C.3        1 UNL1     0.1342
     3 C         -0.001429   -2.005083   -0.801968 C.3        1 UNL1     0.1174
     4 C         0.915899   -2.917408   -1.620069 C.3        1 UNL1     0.1456
     5 C         2.407909   -2.626581   -1.375756 C.3        1 UNL1     0.2326
     6 O         2.690989   -1.260098   -1.668085 O.3        1 UNL1     -0.3076
     7 O         2.865343   -3.033089   -0.073133 O.3        1 UNL1     -0.4605
     8 C         3.345368   -4.326766   0.02436 C.ar        1 UNL1     0.1310
     9 C         3.595658   -5.181676   -1.054427 C.ar        1 UNL1     0.0226
     10 C         4.099287   -6.472345   -0.853342 C.ar        1 UNL1     0.1343
     11 C         4.387572   -6.931346   0.431201 C.ar        1 UNL1     0.1007
     12 C         4.103246   -6.101731   1.519172 C.ar        1 UNL1     0.1389
     13 C         3.594368   -4.804983   1.316887 C.ar        1 UNL1     0.0229
     14 C         4.999229   -8.254339   0.695247 C.2        1 UNL1     0.1740
     15 C         5.445491   -8.49304   2.107841 C.3        1 UNL1     0.0520
     16 C         4.399145   -7.911371   3.048468 C.3        1 UNL1     0.1322
     17 O         4.246551   -6.491397   2.830618 O.3        1 UNL1     -0.4828
     18 C         3.08453   -8.695034   3.068027 C.ar        1 UNL1     -0.0067
     19 C         1.956857   -8.172574   2.401992 C.ar        1 UNL1     -0.0516
     20 C         0.726911   -8.840221   2.439983 C.ar        1 UNL1     -0.0198
     21 C         0.610083   -10.024692   3.145112 C.ar        1 UNL1     0.1169
     22 C         1.710882   -10.581397   3.783203 C.ar        1 UNL1     -0.0198
     23 C         2.945498   -9.923412   3.729958 C.ar        1 UNL1     -0.0516
     24 O         -0.612804   -10.627034   3.191307 O.3        1 UNL1     -0.5068
     25 O         5.212524   -9.087688   -0.181405 O.2        1 UNL1     -0.2917
     26 O         4.320436   -7.256597   -1.947704 O.3        1 UNL1     -0.5058
     27 O         2.540263   -0.004907   0.311405 O.3        1 UNL1     -0.3648
     28 O         -0.194666   0.037808   -2.042425 O.3        1 UNL1     -0.3841
     29 O         -0.140874   -2.432959   0.554354 O.3        1 UNL1     -0.3863
     30 O         0.632059   -2.73809   -3.024694 O.3        1 UNL1     -0.3829
     31 H         2.092173   0.628009   -1.526153 H        1 UNL1     0.0937
     32 H         0.0   0.0   0.0 H        1 UNL1     0.0671
     33 H         -1.006034   -2.089752   -1.23937 H        1 UNL1     0.0649
     34 H         0.708325   -3.966634   -1.3825 H        1 UNL1     0.0683
     35 H         2.922545   -3.228457   -2.135213 H        1 UNL1     0.1085
     36 H         3.445174   -4.86419   -2.080428 H        1 UNL1     0.0691
     37 H         3.380427   -4.17917   2.180646 H        1 UNL1     0.0691
     38 H         6.413039   -7.996579   2.237862 H        1 UNL1     0.0385
     39 H         5.589108   -9.567913   2.262112 H        1 UNL1     0.0385
     40 H         4.800224   -7.991188   4.067921 H        1 UNL1     0.0789
     41 H         2.020372   -7.239776   1.849267 H        1 UNL1     0.0623
     42 H         -0.138289   -8.421075   1.932286 H        1 UNL1     0.0654
     43 H         1.634186   -11.516165   4.325639 H        1 UNL1     0.0654
     44 H         3.78687   -10.392356   4.230985 H        1 UNL1     0.0623
     45 H         -0.544303   -11.417691   3.75067 H        1 UNL1     0.2921
     46 H         5.192469   -7.05261   -2.321011 H        1 UNL1     0.2922
     47 H         3.269233   0.621848   0.203517 H        1 UNL1     0.2126
     48 H         0.477592   0.611442   -2.458051 H        1 UNL1     0.2101
     49 H         -0.687918   -1.799569   1.04563 H        1 UNL1     0.2100
     50 H         0.423169   -3.616569   -3.404631 H        1 UNL1     0.2102
@<TRIPOS>BOND
     1     1     2    1
     2     1     6    1
     3     2     3    1
     4     3     4    1
     5     3    29    1
     6     3    33    1
     7     4     5    1
     8     5     6    1
     9     5     7    1
    10     5    35    1
    11     7     8    1
    12     8     9   ar
    13     8    13   ar
    14     9    10   ar
    15     9    36    1
    16    10    11   ar
    17    10    26    1
    18    11    12   ar
    19    11    14    1
    20    12    13   ar
    21    12    17    1
    22    13    37    1
    23    14    15    1
    24    14    25    2
    25    15    16    1
    26    15    38    1
    27    15    39    1
    28    16    17    1
    29    16    18    1
    30    16    40    1
    31    18    19   ar
    32    18    23   ar
    33    19    20   ar
    34    19    41    1
    35    20    21   ar
    36    20    42    1
    37    21    22   ar
    38    21    24    1
    39    22    23   ar
    40    22    43    1
    41    23    44    1
    42    24    45    1
    43    26    46    1
    44    27    47    1
    45    28    48    1
    46    29    49    1
    47    30    50    1
    48     1    31    1
    49     1    27    1
    50     2    32    1
    51     2    28    1
    52     4    34    1
    53     4    30    1
