@<TRIPOS>MOLECULE
*****
 50 53 0 0 0
SMALL
GASTEIGER

@<TRIPOS>ATOM
     1 C         -1.944968   -0.992371   -0.055712 C.3        1 UNL1     0.1889
     2 C         -0.901979   -0.062988   0.621312 C.3        1 UNL1     0.1342
     3 C         -0.501609   -0.478467   2.045231 C.3        1 UNL1     0.1174
     4 C         -1.660366   -1.09762   2.830756 C.3        1 UNL1     0.1456
     5 C         -2.431931   -2.149768   2.013422 C.3        1 UNL1     0.2326
     6 O         -2.916524   -1.567384   0.805586 O.3        1 UNL1     -0.3076
     7 O         -1.691066   -3.364746   1.798318 O.3        1 UNL1     -0.4605
     8 C         -0.342254   -3.213109   1.531409 C.ar        1 UNL1     0.1310
     9 C         0.32113   -1.990892   1.378412 C.ar        1 UNL1     0.0226
     10 C         1.697228   -1.94097   1.125898 C.ar        1 UNL1     0.1343
     11 C         2.448395   -3.112658   1.043827 C.ar        1 UNL1     0.1007
     12 C         1.789972   -4.340302   1.154061 C.ar        1 UNL1     0.1389
     13 C         0.405849   -4.390294   1.40533 C.ar        1 UNL1     0.0229
     14 C         3.918492   -3.115712   0.862282 C.2        1 UNL1     0.1740
     15 C         4.589398   -4.448598   1.019919 C.3        1 UNL1     0.0520
     16 C         3.716129   -5.508306   0.362364 C.3        1 UNL1     0.1322
     17 O         2.41209   -5.555105   0.982334 O.3        1 UNL1     -0.4828
     18 C         3.689403   -5.423397   -1.165641 C.ar        1 UNL1     -0.0067
     19 C         3.070347   -6.451672   -1.905665 C.ar        1 UNL1     -0.0516
     20 C         3.069644   -6.428849   -3.305466 C.ar        1 UNL1     -0.0198
     21 C         3.689602   -5.389403   -3.975564 C.ar        1 UNL1     0.1169
     22 C         4.278543   -4.345167   -3.274452 C.ar        1 UNL1     -0.0198
     23 C         4.263311   -4.358299   -1.874576 C.ar        1 UNL1     -0.0516
     24 O         3.701673   -5.42048   -5.339122 O.3        1 UNL1     -0.5068
     25 O         4.578688   -2.09717   0.674666 O.2        1 UNL1     -0.2917
     26 O         2.283687   -0.717042   0.985708 O.3        1 UNL1     -0.5058
     27 O         -1.365234   -1.962744   -0.913075 O.3        1 UNL1     -0.3648
     28 O         -1.457017   1.262954   0.702052 O.3        1 UNL1     -0.3841
     29 O         0.659369   -1.31139   2.022853 O.3        1 UNL1     -0.3863
     30 O         -2.576526   -0.053355   3.225535 O.3        1 UNL1     -0.3829
     31 H         -2.538492   -0.360762   -0.725697 H        1 UNL1     0.0937
     32 H         0.0   0.0   0.0 H        1 UNL1     0.0671
     33 H         -0.199416   0.428777   2.586811 H        1 UNL1     0.0649
     34 H         -1.284338   -1.558805   3.750709 H        1 UNL1     0.0683
     35 H         -3.3089   -2.375127   2.633114 H        1 UNL1     0.1085
     36 H         -0.196156   -1.043878   1.486576 H        1 UNL1     0.0691
     37 H         -0.083276   -5.358673   1.485912 H        1 UNL1     0.0691
     38 H         4.700628   -4.638556   2.092799 H        1 UNL1     0.0385
     39 H         5.589373   -4.401917   0.575341 H        1 UNL1     0.0385
     40 H         4.16419   -6.48469   0.591353 H        1 UNL1     0.0789
     41 H         2.584896   -7.283285   -1.403264 H        1 UNL1     0.0623
     42 H         2.599283   -7.233732   -3.864873 H        1 UNL1     0.0654
     43 H         4.753687   -3.518601   -3.789172 H        1 UNL1     0.0654
     44 H         4.72365   -3.520887   -1.359142 H        1 UNL1     0.0623
     45 H         4.61144   -5.588017   -5.634032 H        1 UNL1     0.2921
     46 H         2.495674   -0.357639   1.861666 H        1 UNL1     0.2922
     47 H         -0.566738   -2.331298   -0.510047 H        1 UNL1     0.2126
     48 H         -2.120417   1.332374   -0.01126 H        1 UNL1     0.2101
     49 H         1.459403   -0.763516   2.062523 H        1 UNL1     0.2100
     50 H         -2.88832   0.397104   2.413387 H        1 UNL1     0.2102
@<TRIPOS>BOND
     1     1     2    1
     2     1     6    1
     3     2     3    1
     4     3     4    1
     5     3    29    1
     6     3    33    1
     7     4     5    1
     8     5     6    1
     9     5     7    1
    10     5    35    1
    11     7     8    1
    12     8     9   ar
    13     8    13   ar
    14     9    10   ar
    15     9    36    1
    16    10    11   ar
    17    10    26    1
    18    11    12   ar
    19    11    14    1
    20    12    13   ar
    21    12    17    1
    22    13    37    1
    23    14    15    1
    24    14    25    2
    25    15    16    1
    26    15    38    1
    27    15    39    1
    28    16    17    1
    29    16    18    1
    30    16    40    1
    31    18    19   ar
    32    18    23   ar
    33    19    20   ar
    34    19    41    1
    35    20    21   ar
    36    20    42    1
    37    21    22   ar
    38    21    24    1
    39    22    23   ar
    40    22    43    1
    41    23    44    1
    42    24    45    1
    43    26    46    1
    44    27    47    1
    45    28    48    1
    46    29    49    1
    47    30    50    1
    48     1    31    1
    49     1    27    1
    50     2    32    1
    51     2    28    1
    52     4    34    1
    53     4    30    1
