@<TRIPOS>MOLECULE
*****
 50 53 0 0 0
SMALL
GASTEIGER

@<TRIPOS>ATOM
     1 C         1.131423   0.087638   1.866281 C.3        1 UNL1     0.1889
     2 C         -0.145446   -0.261717   1.05542 C.3        1 UNL1     0.1342
     3 C         -1.431501   0.406865   1.564857 C.3        1 UNL1     0.1174
     4 C         -1.459135   0.557003   3.08795 C.3        1 UNL1     0.1456
     5 C         -0.13989   1.117608   3.6498 C.3        1 UNL1     0.2326
     6 O         0.948032   0.282117   3.260892 O.3        1 UNL1     -0.3076
     7 O         0.072659   2.506041   3.336113 O.3        1 UNL1     -0.4605
     8 C         1.109035   2.778105   2.461222 C.ar        1 UNL1     0.1310
     9 C         1.125149   3.814212   1.521263 C.ar        1 UNL1     0.0226
     10 C         2.232165   4.019398   0.689207 C.ar        1 UNL1     0.1343
     11 C         3.360674   3.207339   0.79346 C.ar        1 UNL1     0.1007
     12 C         3.34011   2.144006   1.699928 C.ar        1 UNL1     0.1389
     13 C         2.225841   1.936274   2.534604 C.ar        1 UNL1     0.0229
     14 C         4.590103   3.431137   -0.001885 C.2        1 UNL1     0.1740
     15 C         5.779541   2.607291   0.395685 C.3        1 UNL1     0.0520
     16 C         5.30263   1.19876   0.722113 C.3        1 UNL1     0.1322
     17 O         4.351831   1.218449   1.809616 O.3        1 UNL1     -0.4828
     18 C         4.848119   0.402585   -0.50355 C.ar        1 UNL1     -0.0067
     19 C         5.726244   0.252487   -1.596518 C.ar        1 UNL1     -0.0516
     20 C         5.325216   -0.428976   -2.751831 C.ar        1 UNL1     -0.0198
     21 C         4.049028   -0.957348   -2.829245 C.ar        1 UNL1     0.1169
     22 C         3.173027   -0.854848   -1.756419 C.ar        1 UNL1     -0.0198
     23 C         3.580154   -0.189449   -0.593858 C.ar        1 UNL1     -0.0516
     24 O         3.680983   -1.581419   -3.984874 O.3        1 UNL1     -0.5068
     25 O         4.681101   4.284797   -0.880218 O.2        1 UNL1     -0.2917
     26 O         2.184143   5.046886   -0.2072 O.3        1 UNL1     -0.5058
     27 O         1.900192   1.130762   1.288635 O.3        1 UNL1     -0.3648
     28 O         -0.349508   -1.685541   1.11697 O.3        1 UNL1     -0.3841
     29 O         -1.666095   1.640508   0.882784 O.3        1 UNL1     -0.3863
     30 O         -1.707362   -0.733537   3.686766 O.3        1 UNL1     -0.3829
     31 H         1.785109   -0.789875   1.813893 H        1 UNL1     0.0937
     32 H         0.0   0.0   0.0 H        1 UNL1     0.0671
     33 H         -2.27647   -0.241524   1.294046 H        1 UNL1     0.0649
     34 H         -2.285793   1.212182   3.384225 H        1 UNL1     0.0683
     35 H         -0.249624   1.013176   4.736507 H        1 UNL1     0.1085
     36 H         0.30178   4.514097   1.429917 H        1 UNL1     0.0691
     37 H         2.234206   1.100681   3.231172 H        1 UNL1     0.0691
     38 H         6.234294   3.083099   1.271089 H        1 UNL1     0.0385
     39 H         6.512027   2.618105   -0.418641 H        1 UNL1     0.0385
     40 H         6.165652   0.649308   1.121882 H        1 UNL1     0.0789
     41 H         6.730033   0.666011   -1.564016 H        1 UNL1     0.0623
     42 H         6.007441   -0.527741   -3.592561 H        1 UNL1     0.0654
     43 H         2.17658   -1.277989   -1.80063 H        1 UNL1     0.0654
     44 H         2.873631   -0.137368   0.228917 H        1 UNL1     0.0623
     45 H         4.46035   -1.645712   -4.560348 H        1 UNL1     0.2921
     46 H         1.261068   5.31063   -0.347855 H        1 UNL1     0.2922
     47 H         2.393086   0.799893   0.524802 H        1 UNL1     0.2126
     48 H         -1.149853   -1.830274   1.657556 H        1 UNL1     0.2101
     49 H         -0.850243   2.165559   0.860402 H        1 UNL1     0.2100
     50 H         -1.060718   -0.85884   4.41193 H        1 UNL1     0.2102
@<TRIPOS>BOND
     1     1     2    1
     2     1     6    1
     3     2     3    1
     4     3     4    1
     5     3    29    1
     6     3    33    1
     7     4     5    1
     8     5     6    1
     9     5     7    1
    10     5    35    1
    11     7     8    1
    12     8     9   ar
    13     8    13   ar
    14     9    10   ar
    15     9    36    1
    16    10    11   ar
    17    10    26    1
    18    11    12   ar
    19    11    14    1
    20    12    13   ar
    21    12    17    1
    22    13    37    1
    23    14    15    1
    24    14    25    2
    25    15    16    1
    26    15    38    1
    27    15    39    1
    28    16    17    1
    29    16    18    1
    30    16    40    1
    31    18    19   ar
    32    18    23   ar
    33    19    20   ar
    34    19    41    1
    35    20    21   ar
    36    20    42    1
    37    21    22   ar
    38    21    24    1
    39    22    23   ar
    40    22    43    1
    41    23    44    1
    42    24    45    1
    43    26    46    1
    44    27    47    1
    45    28    48    1
    46    29    49    1
    47    30    50    1
    48     1    31    1
    49     1    27    1
    50     2    32    1
    51     2    28    1
    52     4    34    1
    53     4    30    1
