@<TRIPOS>MOLECULE
*****
 50 53 0 0 0
SMALL
GASTEIGER

@<TRIPOS>ATOM
     1 C         -0.344314   -1.949327   0.923243 C.3        1 UNL1     0.1889
     2 C         -0.016167   -1.054518   -0.302146 C.3        1 UNL1     0.1342
     3 C         -0.973901   -1.220234   -1.491998 C.3        1 UNL1     0.1174
     4 C         -1.47624   -2.657094   -1.653884 C.3        1 UNL1     0.1456
     5 C         -1.94293   -3.272752   -0.322145 C.3        1 UNL1     0.2326
     6 O         -0.883274   -3.230115   0.63084 O.3        1 UNL1     -0.3076
     7 O         -3.170991   -2.707503   0.171494 O.3        1 UNL1     -0.4605
     8 C         -3.563696   -1.513225   -0.405577 C.ar        1 UNL1     0.1310
     9 C         -2.927145   -0.885217   -1.481546 C.ar        1 UNL1     0.0226
     10 C         -3.412752   0.317792   -2.007719 C.ar        1 UNL1     0.1343
     11 C         -4.561705   0.910266   -1.485493 C.ar        1 UNL1     0.1007
     12 C         -5.182376   0.314007   -0.384573 C.ar        1 UNL1     0.1389
     13 C         -4.692375   -0.894223   0.146003 C.ar        1 UNL1     0.0229
     14 C         -5.166288   2.136105   -2.056415 C.2        1 UNL1     0.1740
     15 C         -6.516075   2.506737   -1.515807 C.3        1 UNL1     0.0520
     16 C         -6.518431   2.257866   -0.013803 C.3        1 UNL1     0.1322
     17 O         -6.254626   0.867363   0.27599 O.3        1 UNL1     -0.4828
     18 C         -5.655536   3.245186   0.775712 C.ar        1 UNL1     -0.0067
     19 C         -5.031275   4.313684   0.099825 C.ar        1 UNL1     -0.0516
     20 C         -4.19751   5.206815   0.783283 C.ar        1 UNL1     -0.0198
     21 C         -3.974635   5.038251   2.138178 C.ar        1 UNL1     0.1169
     22 C         -4.601736   4.015553   2.837943 C.ar        1 UNL1     -0.0198
     23 C         -5.450159   3.133287   2.158352 C.ar        1 UNL1     -0.0516
     24 O         -3.126618   5.905072   2.762589 O.3        1 UNL1     -0.5068
     25 O         -4.655591   2.779821   -2.969269 O.2        1 UNL1     -0.2917
     26 O         -2.745168   0.879514   -3.056712 O.3        1 UNL1     -0.5058
     27 O         -1.094092   -1.282064   1.92593 O.3        1 UNL1     -0.3648
     28 O         1.305775   -1.384692   -0.767077 O.3        1 UNL1     -0.3841
     29 O         -2.036263   -0.266847   -1.424384 O.3        1 UNL1     -0.3863
     30 O         -0.413924   -3.472208   -2.194959 O.3        1 UNL1     -0.3829
     31 H         0.610921   -2.178137   1.408269 H        1 UNL1     0.0937
     32 H         0.0   0.0   0.0 H        1 UNL1     0.0671
     33 H         -0.417794   -0.972995   -2.40706 H        1 UNL1     0.0649
     34 H         -2.301124   -2.685944   -2.374394 H        1 UNL1     0.0683
     35 H         -2.111956   -4.329521   -0.564112 H        1 UNL1     0.1085
     36 H         -2.062673   -1.323991   -1.96764 H        1 UNL1     0.0691
     37 H         -5.192998   -1.337601   1.004073 H        1 UNL1     0.0691
     38 H         -7.258697   1.880097   -2.021141 H        1 UNL1     0.0385
     39 H         -6.726604   3.552973   -1.762477 H        1 UNL1     0.0385
     40 H         -7.545306   2.422005   0.339899 H        1 UNL1     0.0789
     41 H         -5.182932   4.462103   -0.965362 H        1 UNL1     0.0623
     42 H         -3.712421   6.019706   0.248579 H        1 UNL1     0.0654
     43 H         -4.446086   3.883451   3.902007 H        1 UNL1     0.0654
     44 H         -5.931863   2.352164   2.738571 H        1 UNL1     0.0623
     45 H         -2.764816   6.512845   2.097436 H        1 UNL1     0.2921
     46 H         -3.193252   1.697311   -3.324744 H        1 UNL1     0.2922
     47 H         -0.524319   -0.680741   2.425559 H        1 UNL1     0.2126
     48 H         1.196446   -1.822171   -1.633329 H        1 UNL1     0.2101
     49 H         -2.211362   -0.032937   -0.498954 H        1 UNL1     0.2100
     50 H         0.287632   -2.873206   -2.524699 H        1 UNL1     0.2102
@<TRIPOS>BOND
     1     1     2    1
     2     1     6    1
     3     2     3    1
     4     3     4    1
     5     3    29    1
     6     3    33    1
     7     4     5    1
     8     5     6    1
     9     5     7    1
    10     5    35    1
    11     7     8    1
    12     8     9   ar
    13     8    13   ar
    14     9    10   ar
    15     9    36    1
    16    10    11   ar
    17    10    26    1
    18    11    12   ar
    19    11    14    1
    20    12    13   ar
    21    12    17    1
    22    13    37    1
    23    14    15    1
    24    14    25    2
    25    15    16    1
    26    15    38    1
    27    15    39    1
    28    16    17    1
    29    16    18    1
    30    16    40    1
    31    18    19   ar
    32    18    23   ar
    33    19    20   ar
    34    19    41    1
    35    20    21   ar
    36    20    42    1
    37    21    22   ar
    38    21    24    1
    39    22    23   ar
    40    22    43    1
    41    23    44    1
    42    24    45    1
    43    26    46    1
    44    27    47    1
    45    28    48    1
    46    29    49    1
    47    30    50    1
    48     1    31    1
    49     1    27    1
    50     2    32    1
    51     2    28    1
    52     4    34    1
    53     4    30    1
