@<TRIPOS>MOLECULE
*****
 50 53 0 0 0
SMALL
GASTEIGER

@<TRIPOS>ATOM
     1 C         -0.331852   -1.329257   1.701104 C.3        1 UNL1     0.1889
     2 C         -0.460417   -0.976544   0.194783 C.3        1 UNL1     0.1342
     3 C         -1.900295   -0.967504   -0.341068 C.3        1 UNL1     0.1174
     4 C         -2.785205   -2.028986   0.317193 C.3        1 UNL1     0.1456
     5 C         -2.636347   -2.054058   1.849374 C.3        1 UNL1     0.2326
     6 O         -1.271565   -2.268807   2.201684 O.3        1 UNL1     -0.3076
     7 O         -3.215286   -0.908471   2.500357 O.3        1 UNL1     -0.4605
     8 C         -3.726612   -1.125222   3.767279 C.ar        1 UNL1     0.1310
     9 C         -4.540838   -2.200293   4.139514 C.ar        1 UNL1     0.0226
     10 C         -4.995688   -2.34183   5.455941 C.ar        1 UNL1     0.1343
     11 C         -4.627405   -1.423717   6.438426 C.ar        1 UNL1     0.1007
     12 C         -3.848445   -0.323636   6.069878 C.ar        1 UNL1     0.1389
     13 C         -3.393405   -0.180116   4.745578 C.ar        1 UNL1     0.0229
     14 C         -5.010121   -1.570515   7.861849 C.2        1 UNL1     0.1740
     15 C         -4.345248   -0.620548   8.814243 C.3        1 UNL1     0.0520
     16 C         -4.278365   0.7516   8.157972 C.3        1 UNL1     0.1322
     17 O         -3.517549   0.696693   6.9311 O.3        1 UNL1     -0.4828
     18 C         -5.639176   1.440515   8.030237 C.ar        1 UNL1     -0.0067
     19 C         -6.017659   2.002244   6.793538 C.ar        1 UNL1     -0.0516
     20 C         -7.234447   2.680635   6.655067 C.ar        1 UNL1     -0.0198
     21 C         -8.07629   2.810199   7.745177 C.ar        1 UNL1     0.1169
     22 C         -7.746543   2.238957   8.967383 C.ar        1 UNL1     -0.0198
     23 C         -6.53825   1.544592   9.101324 C.ar        1 UNL1     -0.0516
     24 O         -9.235521   3.51021   7.582177 O.3        1 UNL1     -0.5068
     25 O         -5.757339   -2.454129   8.273403 O.2        1 UNL1     -0.2917
     26 O         -5.787755   -3.412182   5.753535 O.3        1 UNL1     -0.5058
     27 O         -0.230872   -0.190838   2.541695 O.3        1 UNL1     -0.3648
     28 O         0.273902   -1.953134   -0.566633 O.3        1 UNL1     -0.3841
     29 O         -2.461082   0.344742   -0.265844 O.3        1 UNL1     -0.3863
     30 O         -2.433521   -3.328893   -0.204582 O.3        1 UNL1     -0.3829
     31 H         0.629844   -1.839782   1.821874 H        1 UNL1     0.0937
     32 H         0.0   0.0   0.0 H        1 UNL1     0.0671
     33 H         -1.860729   -1.206885   -1.412913 H        1 UNL1     0.0649
     34 H         -3.835287   -1.853197   0.058684 H        1 UNL1     0.0683
     35 H         -3.189434   -2.951297   2.154227 H        1 UNL1     0.1085
     36 H         -4.816096   -2.977708   3.435255 H        1 UNL1     0.0691
     37 H         -2.789142   0.685871   4.483993 H        1 UNL1     0.0691
     38 H         -3.342254   -1.008107   9.022398 H        1 UNL1     0.0385
     39 H         -4.907049   -0.60293   9.754375 H        1 UNL1     0.0385
     40 H         -3.686218   1.398311   8.81952 H        1 UNL1     0.0789
     41 H         -5.370246   1.922083   5.92516 H        1 UNL1     0.0623
     42 H         -7.509603   3.119712   5.699288 H        1 UNL1     0.0654
     43 H         -8.405345   2.321465   9.823586 H        1 UNL1     0.0654
     44 H         -6.317535   1.101897   10.06784 H        1 UNL1     0.0623
     45 H         -9.011424   4.417999   7.320613 H        1 UNL1     0.2921
     46 H         -5.383131   -3.924412   6.471387 H        1 UNL1     0.2922
     47 H         0.511364   0.364647   2.265322 H        1 UNL1     0.2126
     48 H         1.20596   -1.885778   -0.282973 H        1 UNL1     0.2101
     49 H         -2.022409   0.928246   -0.905283 H        1 UNL1     0.2100
     50 H         -2.664992   -3.344449   -1.156366 H        1 UNL1     0.2102
@<TRIPOS>BOND
     1     1     2    1
     2     1     6    1
     3     2     3    1
     4     3     4    1
     5     3    29    1
     6     3    33    1
     7     4     5    1
     8     5     6    1
     9     5     7    1
    10     5    35    1
    11     7     8    1
    12     8     9   ar
    13     8    13   ar
    14     9    10   ar
    15     9    36    1
    16    10    11   ar
    17    10    26    1
    18    11    12   ar
    19    11    14    1
    20    12    13   ar
    21    12    17    1
    22    13    37    1
    23    14    15    1
    24    14    25    2
    25    15    16    1
    26    15    38    1
    27    15    39    1
    28    16    17    1
    29    16    18    1
    30    16    40    1
    31    18    19   ar
    32    18    23   ar
    33    19    20   ar
    34    19    41    1
    35    20    21   ar
    36    20    42    1
    37    21    22   ar
    38    21    24    1
    39    22    23   ar
    40    22    43    1
    41    23    44    1
    42    24    45    1
    43    26    46    1
    44    27    47    1
    45    28    48    1
    46    29    49    1
    47    30    50    1
    48     1    31    1
    49     1    27    1
    50     2    32    1
    51     2    28    1
    52     4    34    1
    53     4    30    1
