@<TRIPOS>MOLECULE
*****
 50 53 0 0 0
SMALL
GASTEIGER

@<TRIPOS>ATOM
     1 C         -0.364137   -1.389575   1.645385 C.3        1 UNL1     0.1889
     2 C         -0.492417   -0.967709   0.156924 C.3        1 UNL1     0.1342
     3 C         -1.935347   -0.886099   -0.36438 C.3        1 UNL1     0.1174
     4 C         -2.851234   -1.944151   0.255937 C.3        1 UNL1     0.1456
     5 C         -2.691111   -2.040692   1.78414 C.3        1 UNL1     0.2326
     6 O         -1.331824   -2.317169   2.113941 O.3        1 UNL1     -0.3076
     7 O         -3.224784   -0.905222   2.489279 O.3        1 UNL1     -0.4605
     8 C         -3.743907   -1.161082   3.745692 C.ar        1 UNL1     0.1310
     9 C         -4.591046   -2.225893   4.071013 C.ar        1 UNL1     0.0226
     10 C         -5.051474   -2.410526   5.380142 C.ar        1 UNL1     0.1343
     11 C         -4.656373   -1.547685   6.401534 C.ar        1 UNL1     0.1007
     12 C         -3.843722   -0.456981   6.080991 C.ar        1 UNL1     0.1389
     13 C         -3.383035   -0.270032   4.764083 C.ar        1 UNL1     0.0229
     14 C         -5.04498   -1.744429   7.817313 C.2        1 UNL1     0.1740
     15 C         -4.35242   -0.857549   8.809962 C.3        1 UNL1     0.0520
     16 C         -4.242873   0.539137   8.213953 C.3        1 UNL1     0.1322
     17 O         -3.48273   0.514347   6.985687 O.3        1 UNL1     -0.4828
     18 C         -5.581833   1.274277   8.116592 C.ar        1 UNL1     -0.0067
     19 C         -5.599101   2.636613   7.753335 C.ar        1 UNL1     -0.0516
     20 C         -6.802032   3.350884   7.701018 C.ar        1 UNL1     -0.0198
     21 C         -7.990914   2.717556   8.016114 C.ar        1 UNL1     0.1169
     22 C         -8.009951   1.368354   8.344943 C.ar        1 UNL1     -0.0198
     23 C         -6.80926   0.64918   8.379406 C.ar        1 UNL1     -0.0516
     24 O         -9.138083   3.454964   7.990948 O.3        1 UNL1     -0.5068
     25 O         -5.819331   -2.621813   8.190226 O.2        1 UNL1     -0.2917
     26 O         -5.876237   -3.468058   5.631093 O.3        1 UNL1     -0.5058
     27 O         -0.217056   -0.292788   2.533198 O.3        1 UNL1     -0.3648
     28 O         0.201513   -1.934982   -0.652737 O.3        1 UNL1     -0.3841
     29 O         -2.449698   0.440107   -0.227441 O.3        1 UNL1     -0.3863
     30 O         -2.54899   -3.231515   -0.324608 O.3        1 UNL1     -0.3829
     31 H         0.58022   -1.937522   1.734958 H        1 UNL1     0.0937
     32 H         0.0   0.0   0.0 H        1 UNL1     0.0671
     33 H         -1.912657   -1.080017   -1.445861 H        1 UNL1     0.0649
     34 H         -3.896622   -1.721429   0.015189 H        1 UNL1     0.0683
     35 H         -3.272513   -2.930812   2.055319 H        1 UNL1     0.1085
     36 H         -4.889171   -2.963175   3.333681 H        1 UNL1     0.0691
     37 H         -2.752279   0.587607   4.540262 H        1 UNL1     0.0691
     38 H         -3.361981   -1.284303   9.000849 H        1 UNL1     0.0385
     39 H         -4.914463   -0.863623   9.750094 H        1 UNL1     0.0385
     40 H         -3.631957   1.138057   8.902863 H        1 UNL1     0.0789
     41 H         -4.678313   3.15887   7.510338 H        1 UNL1     0.0623
     42 H         -6.800917   4.404039   7.431067 H        1 UNL1     0.0654
     43 H         -8.93706   0.858776   8.578844 H        1 UNL1     0.0654
     44 H         -6.862473   -0.405908   8.630011 H        1 UNL1     0.0623
     45 H         -9.084203   4.129816   8.686928 H        1 UNL1     0.2921
     46 H         -5.599714   -3.906476   6.451298 H        1 UNL1     0.2922
     47 H         0.529057   0.259944   2.261792 H        1 UNL1     0.2126
     48 H         1.155999   -1.788405   -0.507119 H        1 UNL1     0.2101
     49 H         -2.146438   0.989741   -0.967529 H        1 UNL1     0.2100
     50 H         -2.814679   -3.20705   -1.267224 H        1 UNL1     0.2102
@<TRIPOS>BOND
     1     1     2    1
     2     1     6    1
     3     2     3    1
     4     3     4    1
     5     3    29    1
     6     3    33    1
     7     4     5    1
     8     5     6    1
     9     5     7    1
    10     5    35    1
    11     7     8    1
    12     8     9   ar
    13     8    13   ar
    14     9    10   ar
    15     9    36    1
    16    10    11   ar
    17    10    26    1
    18    11    12   ar
    19    11    14    1
    20    12    13   ar
    21    12    17    1
    22    13    37    1
    23    14    15    1
    24    14    25    2
    25    15    16    1
    26    15    38    1
    27    15    39    1
    28    16    17    1
    29    16    18    1
    30    16    40    1
    31    18    19   ar
    32    18    23   ar
    33    19    20   ar
    34    19    41    1
    35    20    21   ar
    36    20    42    1
    37    21    22   ar
    38    21    24    1
    39    22    23   ar
    40    22    43    1
    41    23    44    1
    42    24    45    1
    43    26    46    1
    44    27    47    1
    45    28    48    1
    46    29    49    1
    47    30    50    1
    48     1    31    1
    49     1    27    1
    50     2    32    1
    51     2    28    1
    52     4    34    1
    53     4    30    1
