@<TRIPOS>MOLECULE
*****
 50 53 0 0 0
SMALL
GASTEIGER

@<TRIPOS>ATOM
     1 C         -0.686333   -1.03523   1.796677 C.3        1 UNL1     0.1889
     2 C         -0.548895   -0.914999   0.255056 C.3        1 UNL1     0.1342
     3 C         -1.88081   -0.930242   -0.510604 C.3        1 UNL1     0.1174
     4 C         -2.927502   -1.840006   0.137379 C.3        1 UNL1     0.1456
     5 C         -3.027524   -1.633648   1.659804 C.3        1 UNL1     0.2326
     6 O         -1.753765   -1.846807   2.263931 O.3        1 UNL1     -0.3076
     7 O         -3.62644   -0.378428   2.029998 O.3        1 UNL1     -0.4605
     8 C         -4.3473   -0.375505   3.210625 C.ar        1 UNL1     0.1310
     9 C         -5.279755   -1.345815   3.593148 C.ar        1 UNL1     0.0226
     10 C         -5.947962   -1.263302   4.820582 C.ar        1 UNL1     0.1343
     11 C         -5.682093   -0.220144   5.70657 C.ar        1 UNL1     0.1007
     12 C         -4.78331   0.776868   5.318059 C.ar        1 UNL1     0.1389
     13 C         -4.113524   0.695087   4.082693 C.ar        1 UNL1     0.0229
     14 C         -6.296745   -0.12923   7.051223 C.2        1 UNL1     0.1740
     15 C         -5.731848   0.928572   7.953162 C.3        1 UNL1     0.0520
     16 C         -5.470335   2.178806   7.12462 C.3        1 UNL1     0.1322
     17 O         -4.528093   1.903702   6.064635 O.3        1 UNL1     -0.4828
     18 C         -6.744663   2.894816   6.670591 C.ar        1 UNL1     -0.0067
     19 C         -6.881001   3.276136   5.319954 C.ar        1 UNL1     -0.0516
     20 C         -8.012464   3.974271   4.881361 C.ar        1 UNL1     -0.0198
     21 C         -9.008918   4.302729   5.783037 C.ar        1 UNL1     0.1169
     22 C         -8.918855   3.911781   7.112656 C.ar        1 UNL1     -0.0198
     23 C         -7.796071   3.197527   7.547689 C.ar        1 UNL1     -0.0516
     24 O         -10.07833   5.016132   5.327169 O.3        1 UNL1     -0.5068
     25 O         -7.156878   -0.907212   7.455452 O.2        1 UNL1     -0.2917
     26 O         -6.846326   -2.241405   5.133381 O.3        1 UNL1     -0.5058
     27 O         -0.64636   0.214507   2.46701 O.3        1 UNL1     -0.3648
     28 O         0.23184   -2.026839   -0.221356 O.3        1 UNL1     -0.3841
     29 O         -2.358817   0.399618   -0.723002 O.3        1 UNL1     -0.3863
     30 O         -2.583234   -3.218276   -0.122509 O.3        1 UNL1     -0.3829
     31 H         0.207968   -1.559737   2.150511 H        1 UNL1     0.0937
     32 H         0.0   0.0   -0.0 H        1 UNL1     0.0671
     33 H         -1.686211   -1.334074   -1.513984 H        1 UNL1     0.0649
     34 H         -3.908864   -1.663632   -0.316738 H        1 UNL1     0.0683
     35 H         -3.680074   -2.449543   1.995026 H        1 UNL1     0.1085
     36 H         -5.4893   -2.210866   2.973552 H        1 UNL1     0.0691
     37 H         -3.419373   1.484717   3.803171 H        1 UNL1     0.0691
     38 H         -4.802933   0.537127   8.38143 H        1 UNL1     0.0385
     39 H         -6.434607   1.114371   8.772545 H        1 UNL1     0.0385
     40 H         -4.950471   2.895254   7.774977 H        1 UNL1     0.0789
     41 H         -6.108563   3.038188   4.59444 H        1 UNL1     0.0623
     42 H         -8.10042   4.273152   3.839754 H        1 UNL1     0.0654
     43 H         -9.700389   4.150651   7.824032 H        1 UNL1     0.0654
     44 H         -7.763694   2.89892   8.591064 H        1 UNL1     0.0623
     45 H         -9.756817   5.86631   4.985784 H        1 UNL1     0.2921
     46 H         -6.597345   -2.651702   5.976635 H        1 UNL1     0.2922
     47 H         0.16406   0.691012   2.238926 H        1 UNL1     0.2126
     48 H         1.109284   -1.953895   0.20114 H        1 UNL1     0.2101
     49 H         -1.786257   0.858615   -1.358054 H        1 UNL1     0.2100
     50 H         -2.660056   -3.371518   -1.087044 H        1 UNL1     0.2102
@<TRIPOS>BOND
     1     1     2    1
     2     1     6    1
     3     2     3    1
     4     3     4    1
     5     3    29    1
     6     3    33    1
     7     4     5    1
     8     5     6    1
     9     5     7    1
    10     5    35    1
    11     7     8    1
    12     8     9   ar
    13     8    13   ar
    14     9    10   ar
    15     9    36    1
    16    10    11   ar
    17    10    26    1
    18    11    12   ar
    19    11    14    1
    20    12    13   ar
    21    12    17    1
    22    13    37    1
    23    14    15    1
    24    14    25    2
    25    15    16    1
    26    15    38    1
    27    15    39    1
    28    16    17    1
    29    16    18    1
    30    16    40    1
    31    18    19   ar
    32    18    23   ar
    33    19    20   ar
    34    19    41    1
    35    20    21   ar
    36    20    42    1
    37    21    22   ar
    38    21    24    1
    39    22    23   ar
    40    22    43    1
    41    23    44    1
    42    24    45    1
    43    26    46    1
    44    27    47    1
    45    28    48    1
    46    29    49    1
    47    30    50    1
    48     1    31    1
    49     1    27    1
    50     2    32    1
    51     2    28    1
    52     4    34    1
    53     4    30    1
