@<TRIPOS>MOLECULE
*****
 50 53 0 0 0
SMALL
GASTEIGER

@<TRIPOS>ATOM
     1 C         -0.335437   -1.330463   1.699457 C.3        1 UNL1     0.1889
     2 C         -0.464123   -0.974984   0.193796 C.3        1 UNL1     0.1342
     3 C         -1.904498   -0.959383   -0.340566 C.3        1 UNL1     0.1174
     4 C         -2.792979   -2.0183   0.317015 C.3        1 UNL1     0.1456
     5 C         -2.642662   -2.04626   1.849003 C.3        1 UNL1     0.2326
     6 O         -1.278393   -2.266994   2.199596 O.3        1 UNL1     -0.3076
     7 O         -3.21635   -0.899342   2.502288 O.3        1 UNL1     -0.4605
     8 C         -3.727675   -1.116046   3.769219 C.ar        1 UNL1     0.1310
     9 C         -4.546117   -2.188322   4.140268 C.ar        1 UNL1     0.0226
     10 C         -5.000617   -2.33013   5.456787 C.ar        1 UNL1     0.1343
     11 C         -4.627805   -1.415184   6.440517 C.ar        1 UNL1     0.1007
     12 C         -3.84452   -0.317759   6.073222 C.ar        1 UNL1     0.1389
     13 C         -3.389827   -0.173955   4.748833 C.ar        1 UNL1     0.0229
     14 C         -5.010117   -1.562731   7.863971 C.2        1 UNL1     0.1740
     15 C         -4.340605   -0.617121   8.817451 C.3        1 UNL1     0.0520
     16 C         -4.268461   0.755817   8.163391 C.3        1 UNL1     0.1322
     17 O         -3.508755   0.699759   6.935884 O.3        1 UNL1     -0.4828
     18 C         -5.626473   1.450616   8.037769 C.ar        1 UNL1     -0.0067
     19 C         -6.002256   2.018512   6.803064 C.ar        1 UNL1     -0.0516
     20 C         -7.216285   2.702256   6.666718 C.ar        1 UNL1     -0.0198
     21 C         -8.058016   2.83105   7.757006 C.ar        1 UNL1     0.1169
     22 C         -7.731002   2.253889   8.977165 C.ar        1 UNL1     -0.0198
     23 C         -6.525529   1.554223   9.108918 C.ar        1 UNL1     -0.0516
     24 O         -9.214393   3.536276   7.596233 O.3        1 UNL1     -0.5068
     25 O         -5.760725   -2.443896   8.274607 O.2        1 UNL1     -0.2917
     26 O         -5.796934   -3.397656   5.753187 O.3        1 UNL1     -0.5058
     27 O         -0.229047   -0.193716   2.541642 O.3        1 UNL1     -0.3648
     28 O         0.265507   -1.953364   -0.569827 O.3        1 UNL1     -0.3841
     29 O         -2.459952   0.354982   -0.26281 O.3        1 UNL1     -0.3863
     30 O         -2.447031   -3.318821   -0.207059 O.3        1 UNL1     -0.3829
     31 H         0.624329   -1.845011   1.818481 H        1 UNL1     0.0937
     32 H         0.0   0.0   0.0 H        1 UNL1     0.0671
     33 H         -1.866981   -1.197316   -1.412807 H        1 UNL1     0.0649
     34 H         -3.842611   -1.837925   0.059844 H        1 UNL1     0.0683
     35 H         -3.199025   -2.941735   2.153083 H        1 UNL1     0.1085
     36 H         -4.82512   -2.963418   3.434928 H        1 UNL1     0.0691
     37 H         -2.782141   0.689932   4.48824 H        1 UNL1     0.0691
     38 H         -3.33909   -1.009206   9.024246 H        1 UNL1     0.0385
     39 H         -4.901659   -0.598709   9.758013 H        1 UNL1     0.0385
     40 H         -3.673148   1.398958   8.825578 H        1 UNL1     0.0789
     41 H         -5.354841   1.939056   5.934623 H        1 UNL1     0.0623
     42 H         -7.489334   3.146029   5.712505 H        1 UNL1     0.0654
     43 H         -8.389792   2.335784   9.833435 H        1 UNL1     0.0654
     44 H         -6.30694   1.107008   10.073833 H        1 UNL1     0.0623
     45 H         -8.986408   4.445941   7.344738 H        1 UNL1     0.2921
     46 H         -5.394588   -3.912026   6.470789 H        1 UNL1     0.2922
     47 H         0.515019   0.359296   2.265233 H        1 UNL1     0.2126
     48 H         1.19925   -1.88552   -0.291884 H        1 UNL1     0.2101
     49 H         -2.019776   0.937619   -0.902008 H        1 UNL1     0.2100
     50 H         -2.67953   -3.332026   -1.158627 H        1 UNL1     0.2102
@<TRIPOS>BOND
     1     1     2    1
     2     1     6    1
     3     2     3    1
     4     3     4    1
     5     3    29    1
     6     3    33    1
     7     4     5    1
     8     5     6    1
     9     5     7    1
    10     5    35    1
    11     7     8    1
    12     8     9   ar
    13     8    13   ar
    14     9    10   ar
    15     9    36    1
    16    10    11   ar
    17    10    26    1
    18    11    12   ar
    19    11    14    1
    20    12    13   ar
    21    12    17    1
    22    13    37    1
    23    14    15    1
    24    14    25    2
    25    15    16    1
    26    15    38    1
    27    15    39    1
    28    16    17    1
    29    16    18    1
    30    16    40    1
    31    18    19   ar
    32    18    23   ar
    33    19    20   ar
    34    19    41    1
    35    20    21   ar
    36    20    42    1
    37    21    22   ar
    38    21    24    1
    39    22    23   ar
    40    22    43    1
    41    23    44    1
    42    24    45    1
    43    26    46    1
    44    27    47    1
    45    28    48    1
    46    29    49    1
    47    30    50    1
    48     1    31    1
    49     1    27    1
    50     2    32    1
    51     2    28    1
    52     4    34    1
    53     4    30    1
