@<TRIPOS>MOLECULE
*****
 50 53 0 0 0
SMALL
GASTEIGER

@<TRIPOS>ATOM
     1 C         -0.289466   -0.104499   2.162428 C.3        1 UNL1     0.1889
     2 C         -0.798422   0.194871   0.726711 C.3        1 UNL1     0.1342
     3 C         -1.327996   1.622013   0.518665 C.3        1 UNL1     0.1174
     4 C         -2.033705   2.179632   1.757275 C.3        1 UNL1     0.1456
     5 C         -1.233774   1.939372   3.050623 C.3        1 UNL1     0.2326
     6 O         -0.98483   0.545295   3.216292 O.3        1 UNL1     -0.3076
     7 O         -0.042956   2.74203   3.145568 O.3        1 UNL1     -0.4605
     8 C         1.095894   2.207439   2.57045 C.ar        1 UNL1     0.1310
     9 C         1.855176   2.812076   1.562875 C.ar        1 UNL1     0.0226
     10 C         3.005876   2.196705   1.055813 C.ar        1 UNL1     0.1343
     11 C         3.438926   0.971615   1.561247 C.ar        1 UNL1     0.1007
     12 C         2.666343   0.338744   2.538679 C.ar        1 UNL1     0.1389
     13 C         1.507907   0.956462   3.046497 C.ar        1 UNL1     0.0229
     14 C         4.692665   0.316817   1.121323 C.2        1 UNL1     0.1740
     15 C         5.118299   -0.876823   1.924821 C.3        1 UNL1     0.0520
     16 C         3.880891   -1.698013   2.260119 C.3        1 UNL1     0.1322
     17 O         2.940023   -0.916893   3.029333 O.3        1 UNL1     -0.4828
     18 C         3.272147   -2.41592   1.053154 C.ar        1 UNL1     -0.0067
     19 C         3.917048   -2.335484   -0.198184 C.ar        1 UNL1     -0.0516
     20 C         3.362438   -2.940544   -1.332323 C.ar        1 UNL1     -0.0198
     21 C         2.162378   -3.621139   -1.229976 C.ar        1 UNL1     0.1169
     22 C         1.520531   -3.74614   -0.004723 C.ar        1 UNL1     -0.0198
     23 C         2.084302   -3.156868   1.133247 C.ar        1 UNL1     -0.0516
     24 O         1.633583   -4.165248   -2.363431 O.3        1 UNL1     -0.5068
     25 O         5.398617   0.748726   0.213815 O.2        1 UNL1     -0.2917
     26 O         3.701133   2.838509   0.072813 O.3        1 UNL1     -0.5058
     27 O         1.116125   0.027271   2.302923 O.3        1 UNL1     -0.3648
     28 O         -1.877191   -0.71026   0.427212 O.3        1 UNL1     -0.3841
     29 O         -0.292971   2.481777   0.037353 O.3        1 UNL1     -0.3863
     30 O         -3.327518   1.551496   1.888356 O.3        1 UNL1     -0.3829
     31 H         -0.480421   -1.167345   2.346748 H        1 UNL1     0.0937
     32 H         0.0   0.0   0.0 H        1 UNL1     0.0671
     33 H         -2.076494   1.58808   -0.285274 H        1 UNL1     0.0649
     34 H         -2.209908   3.254102   1.635341 H        1 UNL1     0.0683
     35 H         -1.925545   2.236883   3.848632 H        1 UNL1     0.1085
     36 H         1.602601   3.789848   1.167541 H        1 UNL1     0.0691
     37 H         0.923256   0.442454   3.806413 H        1 UNL1     0.0691
     38 H         5.605511   -0.507672   2.833599 H        1 UNL1     0.0385
     39 H         5.853844   -1.451539   1.351712 H        1 UNL1     0.0385
     40 H         4.198123   -2.496997   2.943865 H        1 UNL1     0.0789
     41 H         4.855328   -1.799262   -0.306572 H        1 UNL1     0.0623
     42 H         3.863274   -2.861325   -2.29404 H        1 UNL1     0.0654
     43 H         0.588015   -4.289668   0.089635 H        1 UNL1     0.0654
     44 H         1.561174   -3.283448   2.076199 H        1 UNL1     0.0623
     45 H         1.444833   -3.447201   -2.98913 H        1 UNL1     0.2921
     46 H         4.641562   2.870003   0.309484 H        1 UNL1     0.2922
     47 H         1.414248   -0.410885   3.112245 H        1 UNL1     0.2126
     48 H         -1.479462   -1.596824   0.329493 H        1 UNL1     0.2101
     49 H         0.29551   2.730751   0.767762 H        1 UNL1     0.2100
     50 H         -3.476503   0.999192   1.093073 H        1 UNL1     0.2102
@<TRIPOS>BOND
     1     1     2    1
     2     1     6    1
     3     2     3    1
     4     3     4    1
     5     3    29    1
     6     3    33    1
     7     4     5    1
     8     5     6    1
     9     5     7    1
    10     5    35    1
    11     7     8    1
    12     8     9   ar
    13     8    13   ar
    14     9    10   ar
    15     9    36    1
    16    10    11   ar
    17    10    26    1
    18    11    12   ar
    19    11    14    1
    20    12    13   ar
    21    12    17    1
    22    13    37    1
    23    14    15    1
    24    14    25    2
    25    15    16    1
    26    15    38    1
    27    15    39    1
    28    16    17    1
    29    16    18    1
    30    16    40    1
    31    18    19   ar
    32    18    23   ar
    33    19    20   ar
    34    19    41    1
    35    20    21   ar
    36    20    42    1
    37    21    22   ar
    38    21    24    1
    39    22    23   ar
    40    22    43    1
    41    23    44    1
    42    24    45    1
    43    26    46    1
    44    27    47    1
    45    28    48    1
    46    29    49    1
    47    30    50    1
    48     1    31    1
    49     1    27    1
    50     2    32    1
    51     2    28    1
    52     4    34    1
    53     4    30    1
