@<TRIPOS>MOLECULE
*****
 50 53 0 0 0
SMALL
GASTEIGER

@<TRIPOS>ATOM
     1 C         0.248994   -1.783462   1.236151 C.3        1 UNL1     0.1889
     2 C         -0.335479   -1.044514   0.002341 C.3        1 UNL1     0.1342
     3 C         -1.868132   -1.078795   -0.098977 C.3        1 UNL1     0.1174
     4 C         -2.467679   -2.390306   0.414443 C.3        1 UNL1     0.1456
     5 C         -1.871731   -2.822231   1.766719 C.3        1 UNL1     0.2326
     6 O         -0.455215   -2.942319   1.657501 O.3        1 UNL1     -0.3076
     7 O         -2.286087   -1.992232   2.867052 O.3        1 UNL1     -0.4605
     8 C         -2.400761   -2.623192   4.092722 C.ar        1 UNL1     0.1310
     9 C         -3.027018   -3.854344   4.314908 C.ar        1 UNL1     0.0226
     10 C         -3.076561   -4.420687   5.594245 C.ar        1 UNL1     0.1343
     11 C         -2.479635   -3.780273   6.679321 C.ar        1 UNL1     0.1007
     12 C         -1.887103   -2.530896   6.477461 C.ar        1 UNL1     0.1389
     13 C         -1.839732   -1.960408   5.191486 C.ar        1 UNL1     0.0229
     14 C         -2.429099   -4.372808   8.035972 C.2        1 UNL1     0.1740
     15 C         -1.558474   -3.655774   9.025629 C.3        1 UNL1     0.0520
     16 C         -1.741542   -2.156895   8.831189 C.3        1 UNL1     0.1322
     17 O         -1.365214   -1.763671   7.492973 O.3        1 UNL1     -0.4828
     18 C         -3.109143   -1.639383   9.283485 C.ar        1 UNL1     -0.0067
     19 C         -3.843578   -0.788181   8.432442 C.ar        1 UNL1     -0.0516
     20 C         -5.075761   -0.259188   8.834752 C.ar        1 UNL1     -0.0198
     21 C         -5.579705   -0.567223   10.085745 C.ar        1 UNL1     0.1169
     22 C         -4.8957   -1.429295   10.932979 C.ar        1 UNL1     -0.0198
     23 C         -3.672306   -1.973135   10.523587 C.ar        1 UNL1     -0.0516
     24 O         -6.764511   -0.003187   10.457901 O.3        1 UNL1     -0.5068
     25 O         -2.987985   -5.424641   8.335604 O.2        1 UNL1     -0.2917
     26 O         -3.703343   -5.623332   5.743826 O.3        1 UNL1     -0.5058
     27 O         0.539763   -0.922317   2.325494 O.3        1 UNL1     -0.3648
     28 O         0.186496   -1.662198   -1.188758 O.3        1 UNL1     -0.3841
     29 O         -2.44319   0.072927   0.521488 O.3        1 UNL1     -0.3863
     30 O         -2.224672   -3.433521   -0.554236 O.3        1 UNL1     -0.3829
     31 H         1.2265   -2.174013   0.932786 H        1 UNL1     0.0937
     32 H         0.0   0.0   0.0 H        1 UNL1     0.0671
     33 H         -2.135738   -1.001711   -1.16207 H        1 UNL1     0.0649
     34 H         -3.554355   -2.291378   0.513185 H        1 UNL1     0.0683
     35 H         -2.266869   -3.834479   1.9187 H        1 UNL1     0.1085
     36 H         -3.460656   -4.428209   3.503269 H        1 UNL1     0.0691
     37 H         -1.37361   -0.986138   5.061019 H        1 UNL1     0.0691
     38 H         -0.522664   -3.95535   8.83359 H        1 UNL1     0.0385
     39 H         -1.825539   -3.977634   10.037983 H        1 UNL1     0.0385
     40 H         -1.011578   -1.65472   9.480413 H        1 UNL1     0.0789
     41 H         -3.465282   -0.523928   7.449226 H        1 UNL1     0.0623
     42 H         -5.62693   0.405539   8.174175 H        1 UNL1     0.0654
     43 H         -5.288444   -1.689151   11.908754 H        1 UNL1     0.0654
     44 H         -3.170138   -2.651375   11.206714 H        1 UNL1     0.0623
     45 H         -6.650511   0.960679   10.484043 H        1 UNL1     0.2921
     46 H         -3.088527   -6.261669   6.138717 H        1 UNL1     0.2922
     47 H         1.123342   -0.205787   2.039345 H        1 UNL1     0.2126
     48 H         1.15184   -1.514644   -1.180296 H        1 UNL1     0.2101
     49 H         -2.248495   0.863837   -0.0061 H        1 UNL1     0.2100
     50 H         -2.730523   -3.21631   -1.364574 H        1 UNL1     0.2102
@<TRIPOS>BOND
     1     1     2    1
     2     1     6    1
     3     2     3    1
     4     3     4    1
     5     3    29    1
     6     3    33    1
     7     4     5    1
     8     5     6    1
     9     5     7    1
    10     5    35    1
    11     7     8    1
    12     8     9   ar
    13     8    13   ar
    14     9    10   ar
    15     9    36    1
    16    10    11   ar
    17    10    26    1
    18    11    12   ar
    19    11    14    1
    20    12    13   ar
    21    12    17    1
    22    13    37    1
    23    14    15    1
    24    14    25    2
    25    15    16    1
    26    15    38    1
    27    15    39    1
    28    16    17    1
    29    16    18    1
    30    16    40    1
    31    18    19   ar
    32    18    23   ar
    33    19    20   ar
    34    19    41    1
    35    20    21   ar
    36    20    42    1
    37    21    22   ar
    38    21    24    1
    39    22    23   ar
    40    22    43    1
    41    23    44    1
    42    24    45    1
    43    26    46    1
    44    27    47    1
    45    28    48    1
    46    29    49    1
    47    30    50    1
    48     1    31    1
    49     1    27    1
    50     2    32    1
    51     2    28    1
    52     4    34    1
    53     4    30    1
