@<TRIPOS>MOLECULE
*****
 50 53 0 0 0
SMALL
GASTEIGER

@<TRIPOS>ATOM
     1 C         -0.379172   -1.4275   1.609123 C.3        1 UNL1     0.1889
     2 C         -0.426418   -1.00409   0.11633 C.3        1 UNL1     0.1342
     3 C         -1.827591   -1.029498   -0.51338 C.3        1 UNL1     0.1174
     4 C         -2.703149   -2.160254   0.032426 C.3        1 UNL1     0.1456
     5 C         -2.65248   -2.257204   1.568133 C.3        1 UNL1     0.2326
     6 O         -1.304818   -2.430889   2.000001 O.3        1 UNL1     -0.3076
     7 O         -3.32453   -1.172306   2.233465 O.3        1 UNL1     -0.4605
     8 C         -3.916121   -1.478133   3.445908 C.ar        1 UNL1     0.1310
     9 C         -4.708994   -2.602455   3.699978 C.ar        1 UNL1     0.0226
     10 C         -5.251038   -2.833817   4.969846 C.ar        1 UNL1     0.1343
     11 C         -4.993438   -1.958019   6.02363 C.ar        1 UNL1     0.1007
     12 C         -4.237026   -0.810295   5.771925 C.ar        1 UNL1     0.1389
     13 C         -3.69431   -0.576512   4.494335 C.ar        1 UNL1     0.0229
     14 C         -5.471077   -2.197788   7.405123 C.2        1 UNL1     0.1740
     15 C         -4.917097   -1.277215   8.452597 C.3        1 UNL1     0.0520
     16 C         -4.861041   0.130664   7.875803 C.3        1 UNL1     0.1322
     17 O         -4.012264   0.172763   6.707524 O.3        1 UNL1     -0.4828
     18 C         -6.236949   0.773098   7.683764 C.ar        1 UNL1     -0.0067
     19 C         -6.542371   1.403073   6.459811 C.ar        1 UNL1     -0.0516
     20 C         -7.773534   2.041371   6.268041 C.ar        1 UNL1     -0.0198
     21 C         -8.702738   2.062974   7.292707 C.ar        1 UNL1     0.1169
     22 C         -8.444304   1.422607   8.497689 C.ar        1 UNL1     -0.0198
     23 C         -7.22054   0.768364   8.683225 C.ar        1 UNL1     -0.0516
     24 O         -9.875622   2.726751   7.082601 O.3        1 UNL1     -0.5068
     25 O         -6.208075   -3.130699   7.713339 O.2        1 UNL1     -0.2917
     26 O         -6.016656   -3.948458   5.151473 O.3        1 UNL1     -0.5058
     27 O         -0.385353   -0.330256   2.508459 O.3        1 UNL1     -0.3648
     28 O         0.399841   -1.908051   -0.640543 O.3        1 UNL1     -0.3841
     29 O         -2.45209   0.2519   -0.412611 O.3        1 UNL1     -0.3863
     30 O         -2.258846   -3.415489   -0.526743 O.3        1 UNL1     -0.3829
     31 H         0.595282   -1.90177   1.769078 H        1 UNL1     0.0937
     32 H         0.0   0.0   0.0 H        1 UNL1     0.0671
     33 H         -1.70792   -1.211853   -1.590481 H        1 UNL1     0.0649
     34 H         -3.741357   -2.016727   -0.28683 H        1 UNL1     0.0683
     35 H         -3.182043   -3.191772   1.791796 H        1 UNL1     0.1085
     36 H         -4.899846   -3.349699   2.937533 H        1 UNL1     0.0691
     37 H         -3.109821   0.325061   4.323949 H        1 UNL1     0.0691
     38 H         -3.916246   -1.637089   8.713968 H        1 UNL1     0.0385
     39 H         -5.545344   -1.333067   9.348121 H        1 UNL1     0.0385
     40 H         -4.345821   0.761965   8.612368 H        1 UNL1     0.0789
     41 H         -5.826296   1.407936   5.643194 H        1 UNL1     0.0623
     42 H         -7.992514   2.533852   5.323837 H        1 UNL1     0.0654
     43 H         -9.170877   1.420474   9.301429 H        1 UNL1     0.0654
     44 H         -7.056458   0.269416   9.633474 H        1 UNL1     0.0623
     45 H         -9.674474   3.6645   6.93133 H        1 UNL1     0.2921
     46 H         -5.645054   -4.482408   5.871349 H        1 UNL1     0.2922
     47 H         0.334117   0.280639   2.296254 H        1 UNL1     0.2126
     48 H         1.314719   -1.783706   -0.322316 H        1 UNL1     0.2101
     49 H         -2.005879   0.883506   -0.998924 H        1 UNL1     0.2100
     50 H         -2.43264   -3.39452   -1.490624 H        1 UNL1     0.2102
@<TRIPOS>BOND
     1     1     2    1
     2     1     6    1
     3     2     3    1
     4     3     4    1
     5     3    29    1
     6     3    33    1
     7     4     5    1
     8     5     6    1
     9     5     7    1
    10     5    35    1
    11     7     8    1
    12     8     9   ar
    13     8    13   ar
    14     9    10   ar
    15     9    36    1
    16    10    11   ar
    17    10    26    1
    18    11    12   ar
    19    11    14    1
    20    12    13   ar
    21    12    17    1
    22    13    37    1
    23    14    15    1
    24    14    25    2
    25    15    16    1
    26    15    38    1
    27    15    39    1
    28    16    17    1
    29    16    18    1
    30    16    40    1
    31    18    19   ar
    32    18    23   ar
    33    19    20   ar
    34    19    41    1
    35    20    21   ar
    36    20    42    1
    37    21    22   ar
    38    21    24    1
    39    22    23   ar
    40    22    43    1
    41    23    44    1
    42    24    45    1
    43    26    46    1
    44    27    47    1
    45    28    48    1
    46    29    49    1
    47    30    50    1
    48     1    31    1
    49     1    27    1
    50     2    32    1
    51     2    28    1
    52     4    34    1
    53     4    30    1
