@<TRIPOS>MOLECULE
*****
 50 53 0 0 0
SMALL
GASTEIGER

@<TRIPOS>ATOM
     1 C         -0.312942   -1.370716   1.671529 C.3        1 UNL1     0.1889
     2 C         -0.462039   -0.979209   0.176727 C.3        1 UNL1     0.1342
     3 C         -1.909596   -0.950365   -0.337288 C.3        1 UNL1     0.1174
     4 C         -2.789646   -2.02447   0.30686 C.3        1 UNL1     0.1456
     5 C         -2.618352   -2.089191   1.835531 C.3        1 UNL1     0.2326
     6 O         -1.249543   -2.31868   2.161975 O.3        1 UNL1     -0.3076
     7 O         -3.182301   -0.958087   2.523925 O.3        1 UNL1     -0.4605
     8 C         -3.68659   -1.207311   3.787692 C.ar        1 UNL1     0.1310
     9 C         -4.499327   -2.291296   4.136602 C.ar        1 UNL1     0.0226
     10 C         -4.946817   -2.466636   5.451482 C.ar        1 UNL1     0.1343
     11 C         -4.572457   -1.574402   6.455282 C.ar        1 UNL1     0.1007
     12 C         -3.79495   -0.465497   6.110904 C.ar        1 UNL1     0.1389
     13 C         -3.347312   -0.287971   4.788204 C.ar        1 UNL1     0.0229
     14 C         -4.947213   -1.757801   7.876576 C.2        1 UNL1     0.1740
     15 C         -4.276418   -0.833075   8.849441 C.3        1 UNL1     0.0520
     16 C         -4.212444   0.555559   8.228507 C.3        1 UNL1     0.1322
     17 O         -3.458602   0.532071   6.996339 O.3        1 UNL1     -0.4828
     18 C         -5.573553   1.248141   8.126337 C.ar        1 UNL1     -0.0067
     19 C         -5.708685   2.39337   7.314917 C.ar        1 UNL1     -0.0516
     20 C         -6.927127   3.078342   7.236347 C.ar        1 UNL1     -0.0198
     21 C         -8.0134   2.633429   7.968394 C.ar        1 UNL1     0.1169
     22 C         -7.92073   1.489365   8.750294 C.ar        1 UNL1     -0.0198
     23 C         -6.707568   0.793553   8.814636 C.ar        1 UNL1     -0.0516
     24 O         -9.172974   3.347981   7.896265 O.3        1 UNL1     -0.5068
     25 O         -5.69261   -2.651438   8.269364 O.2        1 UNL1     -0.2917
     26 O         -5.737814   -3.543981   5.725774 O.3        1 UNL1     -0.5058
     27 O         -0.194294   -0.254516   2.539174 O.3        1 UNL1     -0.3648
     28 O         0.256431   -1.939224   -0.620065 O.3        1 UNL1     -0.3841
     29 O         -2.4631   0.361928   -0.22044 O.3        1 UNL1     -0.3863
     30 O         -2.45174   -3.31216   -0.252929 O.3        1 UNL1     -0.3829
     31 H         0.648041   -1.888261   1.765004 H        1 UNL1     0.0937
     32 H         0.0   0.0   0.0 H        1 UNL1     0.0671
     33 H         -1.886937   -1.162538   -1.415337 H        1 UNL1     0.0649
     34 H         -3.842592   -1.837663   0.068515 H        1 UNL1     0.0683
     35 H         -3.171059   -2.991528   2.125671 H        1 UNL1     0.1085
     36 H         -4.77901   -3.050114   3.414043 H        1 UNL1     0.0691
     37 H         -2.744033   0.584228   4.545686 H        1 UNL1     0.0691
     38 H         -3.272491   -1.226326   9.041823 H        1 UNL1     0.0385
     39 H         -4.832891   -0.839534   9.792879 H        1 UNL1     0.0385
     40 H         -3.616193   1.184684   8.903197 H        1 UNL1     0.0789
     41 H         -4.868382   2.767997   6.737686 H        1 UNL1     0.0623
     42 H         -7.015394   3.96708   6.616375 H        1 UNL1     0.0654
     43 H         -8.769388   1.123556   9.315868 H        1 UNL1     0.0654
     44 H         -6.673947   -0.102289   9.427156 H        1 UNL1     0.0623
     45 H         -9.018361   4.223665   8.286124 H        1 UNL1     0.2921
     46 H         -5.443684   -3.959335   6.551837 H        1 UNL1     0.2922
     47 H         0.533259   0.315604   2.253709 H        1 UNL1     0.2126
     48 H         1.206822   -1.761375   -0.482734 H        1 UNL1     0.2101
     49 H         -2.18065   0.907332   -0.971806 H        1 UNL1     0.2100
     50 H         -2.723178   -3.312337   -1.194222 H        1 UNL1     0.2102
@<TRIPOS>BOND
     1     1     2    1
     2     1     6    1
     3     2     3    1
     4     3     4    1
     5     3    29    1
     6     3    33    1
     7     4     5    1
     8     5     6    1
     9     5     7    1
    10     5    35    1
    11     7     8    1
    12     8     9   ar
    13     8    13   ar
    14     9    10   ar
    15     9    36    1
    16    10    11   ar
    17    10    26    1
    18    11    12   ar
    19    11    14    1
    20    12    13   ar
    21    12    17    1
    22    13    37    1
    23    14    15    1
    24    14    25    2
    25    15    16    1
    26    15    38    1
    27    15    39    1
    28    16    17    1
    29    16    18    1
    30    16    40    1
    31    18    19   ar
    32    18    23   ar
    33    19    20   ar
    34    19    41    1
    35    20    21   ar
    36    20    42    1
    37    21    22   ar
    38    21    24    1
    39    22    23   ar
    40    22    43    1
    41    23    44    1
    42    24    45    1
    43    26    46    1
    44    27    47    1
    45    28    48    1
    46    29    49    1
    47    30    50    1
    48     1    31    1
    49     1    27    1
    50     2    32    1
    51     2    28    1
    52     4    34    1
    53     4    30    1
