@<TRIPOS>MOLECULE
*****
 50 53 0 0 0
SMALL
GASTEIGER

@<TRIPOS>ATOM
     1 C         -0.449608   -1.871979   1.031675 C.3        1 UNL1     0.1889
     2 C         -0.791961   -0.409537   0.639248 C.3        1 UNL1     0.1342
     3 C         -1.016394   0.53759   1.827964 C.3        1 UNL1     0.1174
     4 C         -1.681135   -0.15419   3.020724 C.3        1 UNL1     0.1456
     5 C         -1.032932   -1.510651   3.352707 C.3        1 UNL1     0.2326
     6 O         -1.073701   -2.361628   2.209447 O.3        1 UNL1     -0.3076
     7 O         0.282887   -1.392729   3.923704 O.3        1 UNL1     -0.4605
     8 C         0.939559   -2.58207   4.184045 C.ar        1 UNL1     0.1310
     9 C         2.280024   -2.700706   4.566639 C.ar        1 UNL1     0.0226
     10 C         2.850795   -3.952619   4.825167 C.ar        1 UNL1     0.1343
     11 C         2.087707   -5.115611   4.730372 C.ar        1 UNL1     0.1007
     12 C         0.759136   -5.013341   4.309394 C.ar        1 UNL1     0.1389
     13 C         0.186191   -3.754657   4.046944 C.ar        1 UNL1     0.0229
     14 C         2.616715   -6.456066   5.073134 C.2        1 UNL1     0.1740
     15 C         1.601655   -7.559704   5.129579 C.3        1 UNL1     0.0520
     16 C         0.623491   -7.374003   3.977769 C.3        1 UNL1     0.1322
     17 O         -0.051296   -6.100574   4.078327 O.3        1 UNL1     -0.4828
     18 C         1.228983   -7.664201   2.602309 C.ar        1 UNL1     -0.0067
     19 C         1.525682   -6.591932   1.73604 C.ar        1 UNL1     -0.0516
     20 C         2.035823   -6.824824   0.453277 C.ar        1 UNL1     -0.0198
     21 C         2.246302   -8.122741   0.023235 C.ar        1 UNL1     0.1169
     22 C         1.99531   -9.198128   0.865485 C.ar        1 UNL1     -0.0198
     23 C         1.502556   -8.964757   2.154975 C.ar        1 UNL1     -0.0516
     24 O         2.708422   -8.312124   -1.246009 O.3        1 UNL1     -0.5068
     25 O         3.789167   -6.663425   5.374537 O.2        1 UNL1     -0.2917
     26 O         4.163776   -3.999722   5.193197 O.3        1 UNL1     -0.5058
     27 O         0.941808   -2.148863   1.022408 O.3        1 UNL1     -0.3648
     28 O         -2.004434   -0.417497   -0.136994 O.3        1 UNL1     -0.3841
     29 O         0.197096   1.204679   2.180905 O.3        1 UNL1     -0.3863
     30 O         -3.078777   -0.367436   2.726084 O.3        1 UNL1     -0.3829
     31 H         -0.857091   -2.511568   0.24113 H        1 UNL1     0.0937
     32 H         0.0   0.0   0.0 H        1 UNL1     0.0671
     33 H         -1.701032   1.331903   1.499244 H        1 UNL1     0.0649
     34 H         -1.634773   0.494284   3.902616 H        1 UNL1     0.0683
     35 H         -1.705261   -1.949076   4.100795 H        1 UNL1     0.1085
     36 H         2.910603   -1.830487   4.712273 H        1 UNL1     0.0691
     37 H         -0.84993   -3.702139   3.719546 H        1 UNL1     0.0691
     38 H         1.091237   -7.491092   6.096167 H        1 UNL1     0.0385
     39 H         2.117718   -8.524738   5.083026 H        1 UNL1     0.0385
     40 H         -0.173942   -8.11824   4.107116 H        1 UNL1     0.0789
     41 H         1.36072   -5.56433   2.046639 H        1 UNL1     0.0623
     42 H         2.249422   -5.990063   -0.209717 H        1 UNL1     0.0654
     43 H         2.170743   -10.21791   0.544271 H        1 UNL1     0.0654
     44 H         1.327702   -9.827924   2.789966 H        1 UNL1     0.0623
     45 H         2.230313   -9.060794   -1.637955 H        1 UNL1     0.2921
     46 H         4.483462   -4.913961   5.135054 H        1 UNL1     0.2922
     47 H         1.431886   -1.390056   0.676149 H        1 UNL1     0.2126
     48 H         -2.595115   0.251227   0.260041 H        1 UNL1     0.2101
     49 H         0.293457   1.225549   3.146344 H        1 UNL1     0.2100
     50 H         -3.14335   -1.11358   2.094567 H        1 UNL1     0.2102
@<TRIPOS>BOND
     1     1     2    1
     2     1     6    1
     3     2     3    1
     4     3     4    1
     5     3    29    1
     6     3    33    1
     7     4     5    1
     8     5     6    1
     9     5     7    1
    10     5    35    1
    11     7     8    1
    12     8     9   ar
    13     8    13   ar
    14     9    10   ar
    15     9    36    1
    16    10    11   ar
    17    10    26    1
    18    11    12   ar
    19    11    14    1
    20    12    13   ar
    21    12    17    1
    22    13    37    1
    23    14    15    1
    24    14    25    2
    25    15    16    1
    26    15    38    1
    27    15    39    1
    28    16    17    1
    29    16    18    1
    30    16    40    1
    31    18    19   ar
    32    18    23   ar
    33    19    20   ar
    34    19    41    1
    35    20    21   ar
    36    20    42    1
    37    21    22   ar
    38    21    24    1
    39    22    23   ar
    40    22    43    1
    41    23    44    1
    42    24    45    1
    43    26    46    1
    44    27    47    1
    45    28    48    1
    46    29    49    1
    47    30    50    1
    48     1    31    1
    49     1    27    1
    50     2    32    1
    51     2    28    1
    52     4    34    1
    53     4    30    1
