@<TRIPOS>MOLECULE
*****
 50 53 0 0 0
SMALL
GASTEIGER

@<TRIPOS>ATOM
     1 C         -0.293313   -0.080924   2.16292 C.3        1 UNL1     0.1889
     2 C         -0.799844   0.202369   0.723089 C.3        1 UNL1     0.1342
     3 C         -1.329849   1.626831   0.498435 C.3        1 UNL1     0.1174
     4 C         -2.03811   2.1976   1.729575 C.3        1 UNL1     0.1456
     5 C         -1.240381   1.97202   3.026921 C.3        1 UNL1     0.2326
     6 O         -0.990949   0.579992   3.208333 O.3        1 UNL1     -0.3076
     7 O         -0.050192   2.77637   3.115192 O.3        1 UNL1     -0.4605
     8 C         1.06459   2.153198   3.64665 C.ar        1 UNL1     0.1310
     9 C         2.261775   1.913497   2.963575 C.ar        1 UNL1     0.0226
     10 C         3.343244   1.288657   3.595954 C.ar        1 UNL1     0.1343
     11 C         3.261952   0.909438   4.935142 C.ar        1 UNL1     0.1007
     12 C         2.057527   1.106424   5.615833 C.ar        1 UNL1     0.1389
     13 C         0.969361   1.732323   4.978984 C.ar        1 UNL1     0.0229
     14 C         4.401961   0.322002   5.676392 C.2        1 UNL1     0.1740
     15 C         4.210245   0.182359   7.158045 C.3        1 UNL1     0.0520
     16 C         2.783684   -0.281856   7.41763 C.3        1 UNL1     0.1322
     17 O         1.831425   0.674452   6.902124 O.3        1 UNL1     -0.4828
     18 C         2.520458   -1.729519   6.996078 C.ar        1 UNL1     -0.0067
     19 C         3.607185   -2.55832   6.649198 C.ar        1 UNL1     -0.0516
     20 C         3.398084   -3.87238   6.213898 C.ar        1 UNL1     -0.0198
     21 C         2.109539   -4.365911   6.114371 C.ar        1 UNL1     0.1169
     22 C         1.021033   -3.585013   6.480693 C.ar        1 UNL1     -0.0198
     23 C         1.230987   -2.277021   6.933608 C.ar        1 UNL1     -0.0516
     24 O         1.942625   -5.637684   5.650544 O.3        1 UNL1     -0.5068
     25 O         5.474126   0.03454   5.150737 O.2        1 UNL1     -0.2917
     26 O         4.482287   1.082977   2.873554 O.3        1 UNL1     -0.5058
     27 O         1.111946   0.053204   2.304491 O.3        1 UNL1     -0.3648
     28 O         -1.877558   -0.706627   0.431604 O.3        1 UNL1     -0.3841
     29 O         -0.294443   2.481866   0.009577 O.3        1 UNL1     -0.3863
     30 O         -3.331802   1.570183   1.865215 O.3        1 UNL1     -0.3829
     31 H         -0.484   -1.141794   2.358554 H        1 UNL1     0.0937
     32 H         0.0   0.0   0.0 H        1 UNL1     0.0671
     33 H         -2.076874   1.583636   -0.30643 H        1 UNL1     0.0649
     34 H         -2.2147   3.270563   1.595536 H        1 UNL1     0.0683
     35 H         -1.933762   2.277868   3.820369 H        1 UNL1     0.1085
     36 H         2.407307   2.234742   1.93803 H        1 UNL1     0.0691
     37 H         0.042288   1.873104   5.530537 H        1 UNL1     0.0691
     38 H         4.394884   1.162871   7.609744 H        1 UNL1     0.0385
     39 H         4.952463   -0.520647   7.551329 H        1 UNL1     0.0385
     40 H         2.630078   -0.263355   8.505097 H        1 UNL1     0.0789
     41 H         4.627667   -2.19148   6.709994 H        1 UNL1     0.0623
     42 H         4.243573   -4.497684   5.937935 H        1 UNL1     0.0654
     43 H         0.00872   -3.966539   6.420938 H        1 UNL1     0.0654
     44 H         0.358303   -1.698741   7.221463 H        1 UNL1     0.0623
     45 H         0.993461   -5.793946   5.518688 H        1 UNL1     0.2921
     46 H         4.317067   1.295751   1.941437 H        1 UNL1     0.2922
     47 H         1.514993   0.271207   1.4525 H        1 UNL1     0.2126
     48 H         -1.777871   -0.967732   -0.504142 H        1 UNL1     0.2101
     49 H         -0.54043   2.833685   -0.860772 H        1 UNL1     0.2100
     50 H         -3.415543   0.896209   1.159199 H        1 UNL1     0.2102
@<TRIPOS>BOND
     1     1     2    1
     2     1     6    1
     3     2     3    1
     4     3     4    1
     5     3    29    1
     6     3    33    1
     7     4     5    1
     8     5     6    1
     9     5     7    1
    10     5    35    1
    11     7     8    1
    12     8     9   ar
    13     8    13   ar
    14     9    10   ar
    15     9    36    1
    16    10    11   ar
    17    10    26    1
    18    11    12   ar
    19    11    14    1
    20    12    13   ar
    21    12    17    1
    22    13    37    1
    23    14    15    1
    24    14    25    2
    25    15    16    1
    26    15    38    1
    27    15    39    1
    28    16    17    1
    29    16    18    1
    30    16    40    1
    31    18    19   ar
    32    18    23   ar
    33    19    20   ar
    34    19    41    1
    35    20    21   ar
    36    20    42    1
    37    21    22   ar
    38    21    24    1
    39    22    23   ar
    40    22    43    1
    41    23    44    1
    42    24    45    1
    43    26    46    1
    44    27    47    1
    45    28    48    1
    46    29    49    1
    47    30    50    1
    48     1    31    1
    49     1    27    1
    50     2    32    1
    51     2    28    1
    52     4    34    1
    53     4    30    1
