@<TRIPOS>MOLECULE
*****
 50 53 0 0 0
SMALL
GASTEIGER

@<TRIPOS>ATOM
     1 C         -0.33903   -1.333288   1.696528 C.3        1 UNL1     0.1889
     2 C         -0.465702   -0.974698   0.191434 C.3        1 UNL1     0.1342
     3 C         -1.905517   -0.956008   -0.344335 C.3        1 UNL1     0.1174
     4 C         -2.79616   -2.014937   0.310295 C.3        1 UNL1     0.1456
     5 C         -2.647418   -2.046091   1.842375 C.3        1 UNL1     0.2326
     6 O         -1.283816   -2.269448   2.1939 O.3        1 UNL1     -0.3076
     7 O         -3.220129   -0.89963   2.497319 O.3        1 UNL1     -0.4605
     8 C         -4.436833   -1.103849   3.122982 C.ar        1 UNL1     0.1310
     9 C         -5.527227   -1.785347   2.571708 C.ar        1 UNL1     0.0226
     10 C         -6.71465   -1.95515   3.293578 C.ar        1 UNL1     0.1343
     11 C         -6.83218   -1.467746   4.594526 C.ar        1 UNL1     0.1007
     12 C         -5.764808   -0.749849   5.140532 C.ar        1 UNL1     0.1389
     13 C         -4.571924   -0.576956   4.413506 C.ar        1 UNL1     0.0229
     14 C         -8.032621   -1.69158   5.432973 C.2        1 UNL1     0.1740
     15 C         -7.901169   -1.294926   6.87413 C.3        1 UNL1     0.0520
     16 C         -7.128865   0.015235   6.94472 C.3        1 UNL1     0.1322
     17 O         -5.811991   -0.134162   6.369748 O.3        1 UNL1     -0.4828
     18 C         -7.914315   1.222207   6.426056 C.ar        1 UNL1     -0.0067
     19 C         -7.304762   2.103098   5.509165 C.ar        1 UNL1     -0.0516
     20 C         -7.977762   3.242196   5.051465 C.ar        1 UNL1     -0.0198
     21 C         -9.254992   3.514825   5.507739 C.ar        1 UNL1     0.1169
     22 C         -9.894383   2.648527   6.384976 C.ar        1 UNL1     -0.0198
     23 C         -9.228629   1.499597   6.828581 C.ar        1 UNL1     -0.0516
     24 O         -9.864606   4.653412   5.069116 O.3        1 UNL1     -0.5068
     25 O         -9.052682   -2.23781   5.021156 O.2        1 UNL1     -0.2917
     26 O         -7.741212   -2.628438   2.69823 O.3        1 UNL1     -0.5058
     27 O         -0.231868   -0.198335   2.54103 O.3        1 UNL1     -0.3648
     28 O         0.263301   -1.952627   -0.573364 O.3        1 UNL1     -0.3841
     29 O         -2.459181   0.358993   -0.264575 O.3        1 UNL1     -0.3863
     30 O         -2.451536   -3.314927   -0.215964 O.3        1 UNL1     -0.3829
     31 H         0.619885   -1.849432   1.815508 H        1 UNL1     0.0937
     32 H         0.0   0.0   0.0 H        1 UNL1     0.0671
     33 H         -1.867265   -1.191907   -1.416999 H        1 UNL1     0.0649
     34 H         -3.845277   -1.832568   0.052427 H        1 UNL1     0.0683
     35 H         -3.205357   -2.941363   2.144155 H        1 UNL1     0.1085
     36 H         -5.479003   -2.236172   1.586543 H        1 UNL1     0.0691
     37 H         -3.756023   -0.013162   4.860648 H        1 UNL1     0.0691
     38 H         -7.364868   -2.097871   7.391032 H        1 UNL1     0.0385
     39 H         -8.899973   -1.211107   7.315882 H        1 UNL1     0.0385
     40 H         -6.94259   0.224366   8.006834 H        1 UNL1     0.0789
     41 H         -6.299467   1.916164   5.142985 H        1 UNL1     0.0623
     42 H         -7.492497   3.920107   4.353636 H        1 UNL1     0.0654
     43 H         -10.900165   2.844518   6.736971 H        1 UNL1     0.0654
     44 H         -9.762276   0.839383   7.505475 H        1 UNL1     0.0623
     45 H         -9.331067   5.414556   5.349673 H        1 UNL1     0.2921
     46 H         -8.000146   -3.380538   3.253848 H        1 UNL1     0.2922
     47 H         0.510728   0.356289   2.263896 H        1 UNL1     0.2126
     48 H         1.198697   -1.878853   -0.30258 H        1 UNL1     0.2101
     49 H         -2.01944   0.941562   -0.904134 H        1 UNL1     0.2100
     50 H         -2.688328   -3.327866   -1.166477 H        1 UNL1     0.2102
@<TRIPOS>BOND
     1     1     2    1
     2     1     6    1
     3     2     3    1
     4     3     4    1
     5     3    29    1
     6     3    33    1
     7     4     5    1
     8     5     6    1
     9     5     7    1
    10     5    35    1
    11     7     8    1
    12     8     9   ar
    13     8    13   ar
    14     9    10   ar
    15     9    36    1
    16    10    11   ar
    17    10    26    1
    18    11    12   ar
    19    11    14    1
    20    12    13   ar
    21    12    17    1
    22    13    37    1
    23    14    15    1
    24    14    25    2
    25    15    16    1
    26    15    38    1
    27    15    39    1
    28    16    17    1
    29    16    18    1
    30    16    40    1
    31    18    19   ar
    32    18    23   ar
    33    19    20   ar
    34    19    41    1
    35    20    21   ar
    36    20    42    1
    37    21    22   ar
    38    21    24    1
    39    22    23   ar
    40    22    43    1
    41    23    44    1
    42    24    45    1
    43    26    46    1
    44    27    47    1
    45    28    48    1
    46    29    49    1
    47    30    50    1
    48     1    31    1
    49     1    27    1
    50     2    32    1
    51     2    28    1
    52     4    34    1
    53     4    30    1
