@<TRIPOS>MOLECULE
*****
 50 53 0 0 0
SMALL
GASTEIGER

@<TRIPOS>ATOM
     1 C         -0.969532   -1.3603   -1.407266 C.3        1 UNL1     0.1889
     2 C         0.072827   -1.053128   -0.29863 C.3        1 UNL1     0.1342
     3 C         1.527436   -1.365925   -0.681688 C.3        1 UNL1     0.1174
     4 C         1.651715   -2.593259   -1.587958 C.3        1 UNL1     0.1456
     5 C         0.638256   -2.576284   -2.746826 C.3        1 UNL1     0.2326
     6 O         -0.687792   -2.481727   -2.231534 O.3        1 UNL1     -0.3076
     7 O         0.928533   -1.583635   -3.747679 O.3        1 UNL1     -0.4605
     8 C         0.251967   -0.383314   -3.625143 C.ar        1 UNL1     0.1310
     9 C         0.477141   0.576108   -2.632113 C.ar        1 UNL1     0.0226
     10 C         -0.250441   1.771792   -2.602708 C.ar        1 UNL1     0.1343
     11 C         -1.205198   2.047783   -3.580516 C.ar        1 UNL1     0.1007
     12 C         -1.467786   1.079613   -4.553388 C.ar        1 UNL1     0.1389
     13 C         -0.737928   -0.123701   -4.581192 C.ar        1 UNL1     0.0229
     14 C         -1.943292   3.330389   -3.64605 C.2        1 UNL1     0.1740
     15 C         -2.762923   3.545287   -4.884425 C.3        1 UNL1     0.0520
     16 C         -3.440818   2.231301   -5.247548 C.3        1 UNL1     0.1322
     17 O         -2.460165   1.200516   -5.498287 O.3        1 UNL1     -0.4828
     18 C         -4.555152   1.824914   -4.280163 C.ar        1 UNL1     -0.0067
     19 C         -5.756952   1.293846   -4.791881 C.ar        1 UNL1     -0.0516
     20 C         -6.814033   0.956315   -3.938291 C.ar        1 UNL1     -0.0198
     21 C         -6.684761   1.151525   -2.574836 C.ar        1 UNL1     0.1169
     22 C         -5.501293   1.641334   -2.037872 C.ar        1 UNL1     -0.0198
     23 C         -4.437292   1.961652   -2.889549 C.ar        1 UNL1     -0.0516
     24 O         -7.749209   0.8467   -1.778325 O.3        1 UNL1     -0.5068
     25 O         -1.845241   4.211098   -2.795626 O.2        1 UNL1     -0.2917
     26 O         0.016659   2.665492   -1.606946 O.3        1 UNL1     -0.5058
     27 O         -1.329783   -0.223125   -2.175276 O.3        1 UNL1     -0.3648
     28 O         -0.245453   -1.847198   0.859324 O.3        1 UNL1     -0.3841
     29 O         2.168623   -0.209922   -1.224521 O.3        1 UNL1     -0.3863
     30 O         1.438187   -3.785975   -0.802132 O.3        1 UNL1     -0.3829
     31 H         -1.89561   -1.644666   -0.895804 H        1 UNL1     0.0937
     32 H         0.0   0.0   0.0 H        1 UNL1     0.0671
     33 H         2.075431   -1.596545   0.242561 H        1 UNL1     0.0649
     34 H         2.666625   -2.655646   -1.995963 H        1 UNL1     0.0683
     35 H         0.73507   -3.571973   -3.197501 H        1 UNL1     0.1085
     36 H         1.244253   0.445683   -1.8767 H        1 UNL1     0.0691
     37 H         -0.962229   -0.861701   -5.348354 H        1 UNL1     0.0691
     38 H         -2.083352   3.871849   -5.678822 H        1 UNL1     0.0385
     39 H         -3.48595   4.34752   -4.701582 H        1 UNL1     0.0385
     40 H         -3.936828   2.379841   -6.216274 H        1 UNL1     0.0789
     41 H         -5.886615   1.13965   -5.859149 H        1 UNL1     0.0623
     42 H         -7.740119   0.558756   -4.346118 H        1 UNL1     0.0654
     43 H         -5.383887   1.783992   -0.97027 H        1 UNL1     0.0654
     44 H         -3.523585   2.332049   -2.434806 H        1 UNL1     0.0623
     45 H         -8.491834   1.421173   -2.025723 H        1 UNL1     0.2921
     46 H         0.902458   2.495975   -1.249124 H        1 UNL1     0.2922
     47 H         -1.170541   -0.389529   -3.114856 H        1 UNL1     0.2126
     48 H         0.262543   -2.677244   0.777486 H        1 UNL1     0.2101
     49 H         2.728343   -0.464912   -1.97518 H        1 UNL1     0.2100
     50 H         0.511748   -3.775483   -0.483835 H        1 UNL1     0.2102
@<TRIPOS>BOND
     1     1     2    1
     2     1     6    1
     3     2     3    1
     4     3     4    1
     5     3    29    1
     6     3    33    1
     7     4     5    1
     8     5     6    1
     9     5     7    1
    10     5    35    1
    11     7     8    1
    12     8     9   ar
    13     8    13   ar
    14     9    10   ar
    15     9    36    1
    16    10    11   ar
    17    10    26    1
    18    11    12   ar
    19    11    14    1
    20    12    13   ar
    21    12    17    1
    22    13    37    1
    23    14    15    1
    24    14    25    2
    25    15    16    1
    26    15    38    1
    27    15    39    1
    28    16    17    1
    29    16    18    1
    30    16    40    1
    31    18    19   ar
    32    18    23   ar
    33    19    20   ar
    34    19    41    1
    35    20    21   ar
    36    20    42    1
    37    21    22   ar
    38    21    24    1
    39    22    23   ar
    40    22    43    1
    41    23    44    1
    42    24    45    1
    43    26    46    1
    44    27    47    1
    45    28    48    1
    46    29    49    1
    47    30    50    1
    48     1    31    1
    49     1    27    1
    50     2    32    1
    51     2    28    1
    52     4    34    1
    53     4    30    1
