@<TRIPOS>MOLECULE
*****
 50 53 0 0 0
SMALL
GASTEIGER

@<TRIPOS>ATOM
     1 C         -2.159657   -0.038229   -0.324383 C.3        1 UNL1     0.1889
     2 C         -0.702342   0.127132   -0.833136 C.3        1 UNL1     0.1342
     3 C         -0.414789   1.465217   -1.531209 C.3        1 UNL1     0.1174
     4 C         -1.611948   1.987516   -2.329413 C.3        1 UNL1     0.1456
     5 C         -2.929162   1.910536   -1.536075 C.3        1 UNL1     0.2326
     6 O         -3.167937   0.568029   -1.119504 O.3        1 UNL1     -0.3076
     7 O         -3.004674   2.859777   -0.456927 O.3        1 UNL1     -0.4605
     8 C         -4.2505   3.413457   -0.222654 C.ar        1 UNL1     0.1310
     9 C         -5.347457   3.335683   -1.087487 C.ar        1 UNL1     0.0226
     10 C         -6.5763   3.916351   -0.75182 C.ar        1 UNL1     0.1343
     11 C         -6.744974   4.569018   0.468597 C.ar        1 UNL1     0.1007
     12 C         -5.645311   4.688703   1.32253 C.ar        1 UNL1     0.1389
     13 C         -4.409088   4.107046   0.983623 C.ar        1 UNL1     0.0229
     14 C         -8.043871   5.127399   0.910446 C.2        1 UNL1     0.1740
     15 C         -8.099317   5.592873   2.335861 C.3        1 UNL1     0.0520
     16 C         -6.790575   6.298402   2.66355 C.3        1 UNL1     0.1322
     17 O         -5.669565   5.402236   2.498348 O.3        1 UNL1     -0.4828
     18 C         -6.628896   7.651677   1.966964 C.ar        1 UNL1     -0.0067
     19 C         -7.685654   8.157262   1.182197 C.ar        1 UNL1     -0.0516
     20 C         -7.552979   9.368884   0.49348 C.ar        1 UNL1     -0.0198
     21 C         -6.368623   10.079115   0.575337 C.ar        1 UNL1     0.1169
     22 C         -5.322194   9.623767   1.366845 C.ar        1 UNL1     -0.0198
     23 C         -5.461324   8.421397   2.070411 C.ar        1 UNL1     -0.0516
     24 O         -6.262407   11.235935   -0.139426 O.3        1 UNL1     -0.5068
     25 O         -9.047653   5.14585   0.202939 O.2        1 UNL1     -0.2917
     26 O         -7.606324   3.805856   -1.639754 O.3        1 UNL1     -0.5058
     27 O         -2.31758   0.275247   1.050236 O.3        1 UNL1     -0.3648
     28 O         -0.429558   -0.91922   -1.783631 O.3        1 UNL1     -0.3841
     29 O         0.090669   2.424427   -0.600316 O.3        1 UNL1     -0.3863
     30 O         -1.751738   1.20893   -3.537698 O.3        1 UNL1     -0.3829
     31 H         -2.393092   -1.106785   -0.385825 H        1 UNL1     0.0937
     32 H         0.0   0.0   0.0 H        1 UNL1     0.0671
     33 H         0.399223   1.299928   -2.250781 H        1 UNL1     0.0649
     34 H         -1.433931   3.024475   -2.635073 H        1 UNL1     0.0683
     35 H         -3.699451   2.15611   -2.277847 H        1 UNL1     0.1085
     36 H         -5.296602   2.794163   -2.025724 H        1 UNL1     0.0691
     37 H         -3.568114   4.215317   1.665189 H        1 UNL1     0.0691
     38 H         -8.240641   4.709368   2.967505 H        1 UNL1     0.0385
     39 H         -8.967023   6.248598   2.465824 H        1 UNL1     0.0385
     40 H         -6.8051   6.524693   3.738307 H        1 UNL1     0.0789
     41 H         -8.622097   7.614102   1.094428 H        1 UNL1     0.0623
     42 H         -8.370752   9.742291   -0.117932 H        1 UNL1     0.0654
     43 H         -4.395875   10.179575   1.450035 H        1 UNL1     0.0654
     44 H         -4.627507   8.100921   2.687574 H        1 UNL1     0.0623
     45 H         -6.344404   11.02209   -1.082964 H        1 UNL1     0.2921
     46 H         -7.817989   2.868627   -1.774703 H        1 UNL1     0.2922
     47 H         -3.152614   -0.083532   1.381679 H        1 UNL1     0.2126
     48 H         0.062355   -0.5071   -2.519777 H        1 UNL1     0.2101
     49 H         -0.262173   3.30415   -0.808604 H        1 UNL1     0.2100
     50 H         -2.485986   0.574293   -3.404181 H        1 UNL1     0.2102
@<TRIPOS>BOND
     1     1     2    1
     2     1     6    1
     3     2     3    1
     4     3     4    1
     5     3    29    1
     6     3    33    1
     7     4     5    1
     8     5     6    1
     9     5     7    1
    10     5    35    1
    11     7     8    1
    12     8     9   ar
    13     8    13   ar
    14     9    10   ar
    15     9    36    1
    16    10    11   ar
    17    10    26    1
    18    11    12   ar
    19    11    14    1
    20    12    13   ar
    21    12    17    1
    22    13    37    1
    23    14    15    1
    24    14    25    2
    25    15    16    1
    26    15    38    1
    27    15    39    1
    28    16    17    1
    29    16    18    1
    30    16    40    1
    31    18    19   ar
    32    18    23   ar
    33    19    20   ar
    34    19    41    1
    35    20    21   ar
    36    20    42    1
    37    21    22   ar
    38    21    24    1
    39    22    23   ar
    40    22    43    1
    41    23    44    1
    42    24    45    1
    43    26    46    1
    44    27    47    1
    45    28    48    1
    46    29    49    1
    47    30    50    1
    48     1    31    1
    49     1    27    1
    50     2    32    1
    51     2    28    1
    52     4    34    1
    53     4    30    1
