@<TRIPOS>MOLECULE
*****
 50 53 0 0 0
SMALL
GASTEIGER

@<TRIPOS>ATOM
     1 C         -1.448214   -0.843293   1.400834 C.3        1 UNL1     0.1889
     2 C         -0.726924   0.361055   0.738094 C.3        1 UNL1     0.1342
     3 C         -0.016358   1.303363   1.721769 C.3        1 UNL1     0.1174
     4 C         -0.758905   1.441049   3.053229 C.3        1 UNL1     0.1456
     5 C         -1.204342   0.082257   3.623873 C.3        1 UNL1     0.2326
     6 O         -2.023466   -0.598145   2.675739 O.3        1 UNL1     -0.3076
     7 O         -0.113233   -0.721273   4.108785 O.3        1 UNL1     -0.4605
     8 C         -0.36354   -1.455944   5.253832 C.ar        1 UNL1     0.1310
     9 C         -0.69727   -0.9213   6.502864 C.ar        1 UNL1     0.0226
     10 C         -0.949744   -1.751537   7.601439 C.ar        1 UNL1     0.1343
     11 C         -0.897855   -3.138721   7.47156 C.ar        1 UNL1     0.1007
     12 C         -0.525527   -3.683326   6.239667 C.ar        1 UNL1     0.1389
     13 C         -0.269133   -2.848242   5.135888 C.ar        1 UNL1     0.0229
     14 C         -1.237148   -4.064311   8.577145 C.2        1 UNL1     0.1740
     15 C         -1.345055   -5.512941   8.201144 C.3        1 UNL1     0.0520
     16 C         -0.228352   -5.840365   7.219448 C.3        1 UNL1     0.1322
     17 O         -0.338304   -5.0297   6.028733 O.3        1 UNL1     -0.4828
     18 C         1.165063   -5.851742   7.852686 C.ar        1 UNL1     -0.0067
     19 C         2.219292   -5.162153   7.219219 C.ar        1 UNL1     -0.0516
     20 C         3.515962   -5.191571   7.746234 C.ar        1 UNL1     -0.0198
     21 C         3.772258   -5.91139   8.89949 C.ar        1 UNL1     0.1169
     22 C         2.748164   -6.573127   9.564452 C.ar        1 UNL1     -0.0198
     23 C         1.447726   -6.528662   9.047791 C.ar        1 UNL1     -0.0516
     24 O         5.05479   -5.948201   9.36226 O.3        1 UNL1     -0.5068
     25 O         -1.497117   -3.689077   9.717364 O.2        1 UNL1     -0.2917
     26 O         -1.269065   -1.167044   8.792231 O.3        1 UNL1     -0.5058
     27 O         -0.680148   -2.036108   1.393412 O.3        1 UNL1     -0.3648
     28 O         -1.704268   1.14263   0.026304 O.3        1 UNL1     -0.3841
     29 O         1.351754   0.925332   1.887583 O.3        1 UNL1     -0.3863
     30 O         -1.926521   2.26896   2.861073 O.3        1 UNL1     -0.3829
     31 H         -2.31319   -1.075613   0.770022 H        1 UNL1     0.0937
     32 H         0.0   0.0   0.0 H        1 UNL1     0.0671
     33 H         0.010347   2.303841   1.26784 H        1 UNL1     0.0649
     34 H         -0.122294   1.949711   3.785615 H        1 UNL1     0.0683
     35 H         -1.850151   0.349462   4.469692 H        1 UNL1     0.1085
     36 H         -0.808519   0.146736   6.654665 H        1 UNL1     0.0691
     37 H         0.019987   -3.296989   4.18798 H        1 UNL1     0.0691
     38 H         -2.3291   -5.664224   7.74475 H        1 UNL1     0.0385
     39 H         -1.291184   -6.124239   9.108443 H        1 UNL1     0.0385
     40 H         -0.396546   -6.867602   6.868715 H        1 UNL1     0.0789
     41 H         2.045798   -4.597445   6.307816 H        1 UNL1     0.0623
     42 H         4.322831   -4.665545   7.241981 H        1 UNL1     0.0654
     43 H         2.934842   -7.127385   10.476516 H        1 UNL1     0.0654
     44 H         0.669962   -7.048367   9.599003 H        1 UNL1     0.0623
     45 H         5.651268   -5.718561   8.631373 H        1 UNL1     0.2921
     46 H         -2.018608   -1.635835   9.192021 H        1 UNL1     0.2922
     47 H         -0.121796   -2.079712   2.182209 H        1 UNL1     0.2126
     48 H         -1.504088   2.079734   0.21471 H        1 UNL1     0.2101
     49 H         1.483151   0.016129   1.574728 H        1 UNL1     0.2100
     50 H         -2.708952   1.681129   2.816696 H        1 UNL1     0.2102
@<TRIPOS>BOND
     1     1     2    1
     2     1     6    1
     3     2     3    1
     4     3     4    1
     5     3    29    1
     6     3    33    1
     7     4     5    1
     8     5     6    1
     9     5     7    1
    10     5    35    1
    11     7     8    1
    12     8     9   ar
    13     8    13   ar
    14     9    10   ar
    15     9    36    1
    16    10    11   ar
    17    10    26    1
    18    11    12   ar
    19    11    14    1
    20    12    13   ar
    21    12    17    1
    22    13    37    1
    23    14    15    1
    24    14    25    2
    25    15    16    1
    26    15    38    1
    27    15    39    1
    28    16    17    1
    29    16    18    1
    30    16    40    1
    31    18    19   ar
    32    18    23   ar
    33    19    20   ar
    34    19    41    1
    35    20    21   ar
    36    20    42    1
    37    21    22   ar
    38    21    24    1
    39    22    23   ar
    40    22    43    1
    41    23    44    1
    42    24    45    1
    43    26    46    1
    44    27    47    1
    45    28    48    1
    46    29    49    1
    47    30    50    1
    48     1    31    1
    49     1    27    1
    50     2    32    1
    51     2    28    1
    52     4    34    1
    53     4    30    1
