@<TRIPOS>MOLECULE
*****
 50 53 0 0 0
SMALL
GASTEIGER

@<TRIPOS>ATOM
     1 C         -0.232723   -1.276067   1.757355 C.3        1 UNL1     0.1889
     2 C         -0.408023   -0.989251   0.241787 C.3        1 UNL1     0.1342
     3 C         -1.856863   -1.070732   -0.26288 C.3        1 UNL1     0.1174
     4 C         -2.675508   -2.147093   0.454325 C.3        1 UNL1     0.1456
     5 C         -2.495513   -2.104909   1.982784 C.3        1 UNL1     0.2326
     6 O         -1.115177   -2.239556   2.313557 O.3        1 UNL1     -0.3076
     7 O         -3.117066   -0.963985   2.601884 O.3        1 UNL1     -0.4605
     8 C         -3.59214   -1.155372   3.886876 C.ar        1 UNL1     0.1310
     9 C         -4.345154   -2.253089   4.317325 C.ar        1 UNL1     0.0226
     10 C         -4.766549   -2.364741   5.647687 C.ar        1 UNL1     0.1343
     11 C         -4.424526   -1.392137   6.586251 C.ar        1 UNL1     0.1007
     12 C         -3.707883   -0.271017   6.159289 C.ar        1 UNL1     0.1389
     13 C         -3.28655   -0.157685   4.820983 C.ar        1 UNL1     0.0229
     14 C         -4.771526   -1.501366   8.022153 C.2        1 UNL1     0.1740
     15 C         -4.135482   -0.483831   8.923051 C.3        1 UNL1     0.0520
     16 C         -4.148927   0.863183   8.213594 C.3        1 UNL1     0.1322
     17 O         -3.410594   0.79705   6.97361 O.3        1 UNL1     -0.4828
     18 C         -5.544152   1.480067   8.088997 C.ar        1 UNL1     -0.0067
     19 C         -5.973935   1.974098   6.840224 C.ar        1 UNL1     -0.0516
     20 C         -7.225033   2.587013   6.702204 C.ar        1 UNL1     -0.0198
     21 C         -8.050676   2.718287   7.804433 C.ar        1 UNL1     0.1169
     22 C         -7.669379   2.211841   9.040138 C.ar        1 UNL1     -0.0198
     23 C         -6.426068   1.582396   9.174422 C.ar        1 UNL1     -0.0516
     24 O         -9.24584   3.3546   7.639848 O.3        1 UNL1     -0.5068
     25 O         -5.466249   -2.403221   8.483133 O.2        1 UNL1     -0.2917
     26 O         -5.499134   -3.459602   6.00291 O.3        1 UNL1     -0.5058
     27 O         -0.171229   -0.102047   2.551509 O.3        1 UNL1     -0.3648
     28 O         0.358229   -1.95833   -0.497436 O.3        1 UNL1     -0.3841
     29 O         -2.479784   0.214851   -0.225739 O.3        1 UNL1     -0.3863
     30 O         -2.27078   -3.447948   -0.024906 O.3        1 UNL1     -0.3829
     31 H         0.755054   -1.734447   1.876782 H        1 UNL1     0.0937
     32 H         0.0   0.0   0.0 H        1 UNL1     0.0671
     33 H         -1.826672   -1.349728   -1.32541 H        1 UNL1     0.0649
     34 H         -3.737829   -2.032465   0.211971 H        1 UNL1     0.0683
     35 H         -2.997805   -3.015171   2.333504 H        1 UNL1     0.1085
     36 H         -4.595719   -3.069877   3.649346 H        1 UNL1     0.0691
     37 H         -2.73077   0.725551   4.513579 H        1 UNL1     0.0691
     38 H         -3.11078   -0.814066   9.124196 H        1 UNL1     0.0385
     39 H         -4.678884   -0.45654   9.873707 H        1 UNL1     0.0385
     40 H         -3.576341   1.563144   8.837068 H        1 UNL1     0.0789
     41 H         -5.340526   1.89141   5.961812 H        1 UNL1     0.0623
     42 H         -7.540102   2.974597   5.736532 H        1 UNL1     0.0654
     43 H         -8.314514   2.295846   9.90654 H        1 UNL1     0.0654
     44 H         -6.164976   1.188992   10.152128 H        1 UNL1     0.0623
     45 H         -9.071737   4.261261   7.339228 H        1 UNL1     0.2921
     46 H         -5.05583   -3.923187   6.73091 H        1 UNL1     0.2922
     47 H         0.537278   0.477369   2.238213 H        1 UNL1     0.2126
     48 H         1.291296   -1.834759   -0.236961 H        1 UNL1     0.2101
     49 H         -2.082926   0.793354   -0.896285 H        1 UNL1     0.2100
     50 H         -2.519871   -3.511933   -0.970196 H        1 UNL1     0.2102
@<TRIPOS>BOND
     1     1     2    1
     2     1     6    1
     3     2     3    1
     4     3     4    1
     5     3    29    1
     6     3    33    1
     7     4     5    1
     8     5     6    1
     9     5     7    1
    10     5    35    1
    11     7     8    1
    12     8     9   ar
    13     8    13   ar
    14     9    10   ar
    15     9    36    1
    16    10    11   ar
    17    10    26    1
    18    11    12   ar
    19    11    14    1
    20    12    13   ar
    21    12    17    1
    22    13    37    1
    23    14    15    1
    24    14    25    2
    25    15    16    1
    26    15    38    1
    27    15    39    1
    28    16    17    1
    29    16    18    1
    30    16    40    1
    31    18    19   ar
    32    18    23   ar
    33    19    20   ar
    34    19    41    1
    35    20    21   ar
    36    20    42    1
    37    21    22   ar
    38    21    24    1
    39    22    23   ar
    40    22    43    1
    41    23    44    1
    42    24    45    1
    43    26    46    1
    44    27    47    1
    45    28    48    1
    46    29    49    1
    47    30    50    1
    48     1    31    1
    49     1    27    1
    50     2    32    1
    51     2    28    1
    52     4    34    1
    53     4    30    1
