@<TRIPOS>MOLECULE
*****
 50 53 0 0 0
SMALL
GASTEIGER

@<TRIPOS>ATOM
     1 C         -0.387561   -1.396636   1.634016 C.3        1 UNL1     0.1889
     2 C         -0.424644   -1.002789   0.132867 C.3        1 UNL1     0.1342
     3 C         -1.820949   -1.044462   -0.506712 C.3        1 UNL1     0.1174
     4 C         -2.69763   -2.166696   0.05466 C.3        1 UNL1     0.1456
     5 C         -2.658306   -2.233294   1.592315 C.3        1 UNL1     0.2326
     6 O         -1.313493   -2.394713   2.037612 O.3        1 UNL1     -0.3076
     7 O         -3.338211   -1.137396   2.231108 O.3        1 UNL1     -0.4605
     8 C         -3.928055   -1.41799   3.450485 C.ar        1 UNL1     0.1310
     9 C         -4.713079   -2.541404   3.731518 C.ar        1 UNL1     0.0226
     10 C         -5.253921   -2.745819   5.006511 C.ar        1 UNL1     0.1343
     11 C         -5.002862   -1.843011   6.038862 C.ar        1 UNL1     0.1007
     12 C         -4.254464   -0.696404   5.759622 C.ar        1 UNL1     0.1389
     13 C         -3.712964   -0.48975   4.476851 C.ar        1 UNL1     0.0229
     14 C         -5.479282   -2.05268   7.425663 C.2        1 UNL1     0.1740
     15 C         -4.932162   -1.103176   8.450676 C.3        1 UNL1     0.0520
     16 C         -4.885821   0.290711   7.840029 C.3        1 UNL1     0.1322
     17 O         -4.036956   0.310541   6.671224 O.3        1 UNL1     -0.4828
     18 C         -6.266153   0.918601   7.632273 C.ar        1 UNL1     -0.0067
     19 C         -6.581835   1.500938   6.387507 C.ar        1 UNL1     -0.0516
     20 C         -7.817402   2.125434   6.179323 C.ar        1 UNL1     -0.0198
     21 C         -8.740863   2.180565   7.207918 C.ar        1 UNL1     0.1169
     22 C         -8.472221   1.586899   8.434389 C.ar        1 UNL1     -0.0198
     23 C         -7.244004   0.946201   8.636982 C.ar        1 UNL1     -0.0516
     24 O         -9.918391   2.830131   6.980118 O.3        1 UNL1     -0.5068
     25 O         -6.209798   -2.98304   7.75621 O.2        1 UNL1     -0.2917
     26 O         -6.011734   -3.861113   5.214893 O.3        1 UNL1     -0.5058
     27 O         -0.403419   -0.281945   2.511512 O.3        1 UNL1     -0.3648
     28 O         0.409681   -1.919158   -0.599852 O.3        1 UNL1     -0.3841
     29 O         -2.449557   0.23693   -0.435866 O.3        1 UNL1     -0.3863
     30 O         -2.245818   -3.431443   -0.476349 O.3        1 UNL1     -0.3829
     31 H         0.5869   -1.864963   1.810576 H        1 UNL1     0.0937
     32 H         0.0   0.0   0.0 H        1 UNL1     0.0671
     33 H         -1.692668   -1.247625   -1.579087 H        1 UNL1     0.0649
     34 H         -3.733771   -2.032355   -0.275136 H        1 UNL1     0.0683
     35 H         -3.187085   -3.164751   1.830349 H        1 UNL1     0.1085
     36 H         -4.898399   -3.308184   2.987324 H        1 UNL1     0.0691
     37 H         -3.134779   0.411539   4.284824 H        1 UNL1     0.0691
     38 H         -3.928892   -1.449563   8.720848 H        1 UNL1     0.0385
     39 H         -5.560312   -1.141792   9.347177 H        1 UNL1     0.0385
     40 H         -4.375316   0.943247   8.561209 H        1 UNL1     0.0789
     41 H         -5.870451   1.478942   5.56708 H        1 UNL1     0.0623
     42 H         -8.044332   2.581244   5.218724 H        1 UNL1     0.0654
     43 H         -9.19419   1.611091   9.241908 H        1 UNL1     0.0654
     44 H         -7.071904   0.483877   9.604185 H        1 UNL1     0.0623
     45 H         -9.721049   3.755582   6.7626 H        1 UNL1     0.2921
     46 H         -5.635734   -4.375675   5.946509 H        1 UNL1     0.2922
     47 H         0.328449   0.316382   2.306001 H        1 UNL1     0.2126
     48 H         1.314677   -1.816324   -0.247518 H        1 UNL1     0.2101
     49 H         -1.995314   0.860361   -1.024757 H        1 UNL1     0.2100
     50 H         -2.407187   -3.427686   -1.442609 H        1 UNL1     0.2102
@<TRIPOS>BOND
     1     1     2    1
     2     1     6    1
     3     2     3    1
     4     3     4    1
     5     3    29    1
     6     3    33    1
     7     4     5    1
     8     5     6    1
     9     5     7    1
    10     5    35    1
    11     7     8    1
    12     8     9   ar
    13     8    13   ar
    14     9    10   ar
    15     9    36    1
    16    10    11   ar
    17    10    26    1
    18    11    12   ar
    19    11    14    1
    20    12    13   ar
    21    12    17    1
    22    13    37    1
    23    14    15    1
    24    14    25    2
    25    15    16    1
    26    15    38    1
    27    15    39    1
    28    16    17    1
    29    16    18    1
    30    16    40    1
    31    18    19   ar
    32    18    23   ar
    33    19    20   ar
    34    19    41    1
    35    20    21   ar
    36    20    42    1
    37    21    22   ar
    38    21    24    1
    39    22    23   ar
    40    22    43    1
    41    23    44    1
    42    24    45    1
    43    26    46    1
    44    27    47    1
    45    28    48    1
    46    29    49    1
    47    30    50    1
    48     1    31    1
    49     1    27    1
    50     2    32    1
    51     2    28    1
    52     4    34    1
    53     4    30    1
