@<TRIPOS>MOLECULE
*****
 50 53 0 0 0
SMALL
GASTEIGER

@<TRIPOS>ATOM
     1 C         -0.23746   -1.279688   1.754085 C.3        1 UNL1     0.1889
     2 C         -0.410475   -0.988912   0.239009 C.3        1 UNL1     0.1342
     3 C         -1.858941   -1.065992   -0.267419 C.3        1 UNL1     0.1174
     4 C         -2.680747   -2.142224   0.446357 C.3        1 UNL1     0.1456
     5 C         -2.502324   -2.104043   1.975105 C.3        1 UNL1     0.2326
     6 O         -1.12265   -2.242527   2.307055 O.3        1 UNL1     -0.3076
     7 O         -3.122023   -0.963207   2.596222 O.3        1 UNL1     -0.4605
     8 C         -3.599342   -1.156702   3.880066 C.ar        1 UNL1     0.1310
     9 C         -4.355563   -2.253706   4.306696 C.ar        1 UNL1     0.0226
     10 C         -4.779075   -2.367709   5.636186 C.ar        1 UNL1     0.1343
     11 C         -4.436048   -1.398293   6.577677 C.ar        1 UNL1     0.1007
     12 C         -3.716147   -0.27781   6.154544 C.ar        1 UNL1     0.1389
     13 C         -3.292681   -0.162106   4.817113 C.ar        1 UNL1     0.0229
     14 C         -4.785308   -1.510318   8.012816 C.2        1 UNL1     0.1740
     15 C         -4.148101   -0.496576   8.917163 C.3        1 UNL1     0.0520
     16 C         -4.157354   0.852252   8.211093 C.3        1 UNL1     0.1322
     17 O         -3.417453   0.787489   6.971971 O.3        1 UNL1     -0.4828
     18 C         -5.550933   1.47277   8.086118 C.ar        1 UNL1     -0.0067
     19 C         -5.976729   1.973505   6.838651 C.ar        1 UNL1     -0.0516
     20 C         -7.22616   2.589799   6.70057 C.ar        1 UNL1     -0.0198
     21 C         -8.054074   2.717796   7.80148 C.ar        1 UNL1     0.1169
     22 C         -7.676761   2.204813   9.035709 C.ar        1 UNL1     -0.0198
     23 C         -6.435145   1.572023   9.16996 C.ar        1 UNL1     -0.0516
     24 O         -9.247458   3.357488   7.637071 O.3        1 UNL1     -0.5068
     25 O         -5.482815   -2.411675   8.470553 O.2        1 UNL1     -0.2917
     26 O         -5.514756   -3.461715   5.987626 O.3        1 UNL1     -0.5058
     27 O         -0.174233   -0.107682   2.551074 O.3        1 UNL1     -0.3648
     28 O         0.354434   -1.957941   -0.501668 O.3        1 UNL1     -0.3841
     29 O         -2.479055   0.220877   -0.227918 O.3        1 UNL1     -0.3863
     30 O         -2.278378   -3.442839   -0.035505 O.3        1 UNL1     -0.3829
     31 H         0.749169   -1.740536   1.873501 H        1 UNL1     0.0937
     32 H         0.0   0.0   0.0 H        1 UNL1     0.0671
     33 H         -1.82821   -1.342548   -1.330571 H        1 UNL1     0.0649
     34 H         -3.742547   -2.024671   0.203123 H        1 UNL1     0.0683
     35 H         -3.007011   -3.014014   2.323132 H        1 UNL1     0.1085
     36 H         -4.607138   -3.068206   3.636309 H        1 UNL1     0.0691
     37 H         -2.734375   0.720576   4.512712 H        1 UNL1     0.0691
     38 H         -3.124469   -0.829757   9.118895 H        1 UNL1     0.0385
     39 H         -4.692761   -0.470389   9.86713 H        1 UNL1     0.0385
     40 H         -3.583975   1.549272   8.837127 H        1 UNL1     0.0789
     41 H         -5.341462   1.893482   5.961335 H        1 UNL1     0.0623
     42 H         -7.538134   2.98253   5.735973 H        1 UNL1     0.0654
     43 H         -8.323724   2.286233   9.900995 H        1 UNL1     0.0654
     44 H         -6.177188   1.173535   10.146439 H        1 UNL1     0.0623
     45 H         -9.070471   4.267164   7.347446 H        1 UNL1     0.2921
     46 H         -5.074238   -3.927461   6.715936 H        1 UNL1     0.2922
     47 H         0.533995   0.472243   2.238089 H        1 UNL1     0.2126
     48 H         1.287577   -1.836578   -0.240422 H        1 UNL1     0.2101
     49 H         -2.080365   0.799999   -0.896842 H        1 UNL1     0.2100
     50 H         -2.52658   -3.504043   -0.981212 H        1 UNL1     0.2102
@<TRIPOS>BOND
     1     1     2    1
     2     1     6    1
     3     2     3    1
     4     3     4    1
     5     3    29    1
     6     3    33    1
     7     4     5    1
     8     5     6    1
     9     5     7    1
    10     5    35    1
    11     7     8    1
    12     8     9   ar
    13     8    13   ar
    14     9    10   ar
    15     9    36    1
    16    10    11   ar
    17    10    26    1
    18    11    12   ar
    19    11    14    1
    20    12    13   ar
    21    12    17    1
    22    13    37    1
    23    14    15    1
    24    14    25    2
    25    15    16    1
    26    15    38    1
    27    15    39    1
    28    16    17    1
    29    16    18    1
    30    16    40    1
    31    18    19   ar
    32    18    23   ar
    33    19    20   ar
    34    19    41    1
    35    20    21   ar
    36    20    42    1
    37    21    22   ar
    38    21    24    1
    39    22    23   ar
    40    22    43    1
    41    23    44    1
    42    24    45    1
    43    26    46    1
    44    27    47    1
    45    28    48    1
    46    29    49    1
    47    30    50    1
    48     1    31    1
    49     1    27    1
    50     2    32    1
    51     2    28    1
    52     4    34    1
    53     4    30    1
