@<TRIPOS>MOLECULE
*****
 50 53 0 0 0
SMALL
GASTEIGER

@<TRIPOS>ATOM
     1 C         -0.339232   -1.333381   1.696414 C.3        1 UNL1     0.1889
     2 C         -0.465809   -0.974665   0.191342 C.3        1 UNL1     0.1342
     3 C         -1.905601   -0.955788   -0.344482 C.3        1 UNL1     0.1174
     4 C         -2.796378   -2.014675   0.310035 C.3        1 UNL1     0.1456
     5 C         -2.647698   -2.04596   1.842118 C.3        1 UNL1     0.2326
     6 O         -1.284133   -2.269482   2.193679 O.3        1 UNL1     -0.3076
     7 O         -3.220318   -0.89949   2.497125 O.3        1 UNL1     -0.4605
     8 C         -3.733291   -1.117974   3.763084 C.ar        1 UNL1     0.1310
     9 C         -4.553751   -2.189749   4.131114 C.ar        1 UNL1     0.0226
     10 C         -5.009837   -2.333524   5.446871 C.ar        1 UNL1     0.1343
     11 C         -4.636656   -1.421137   6.432836 C.ar        1 UNL1     0.1007
     12 C         -3.851319   -0.324167   6.068574 C.ar        1 UNL1     0.1389
     13 C         -3.395029   -0.178381   4.744951 C.ar        1 UNL1     0.0229
     14 C         -5.020673   -1.570977   7.855591 C.2        1 UNL1     0.1740
     15 C         -4.350715   -0.628317   8.811675 C.3        1 UNL1     0.0520
     16 C         -4.275799   0.745828   8.160469 C.3        1 UNL1     0.1322
     17 O         -3.514902   0.691092   6.93364 O.3        1 UNL1     -0.4828
     18 C         -5.632621   1.44295   8.034843 C.ar        1 UNL1     -0.0067
     19 C         -6.006253   2.013912   6.8009 C.ar        1 UNL1     -0.0516
     20 C         -7.219097   2.69978   6.664677 C.ar        1 UNL1     -0.0198
     21 C         -8.061765   2.827654   7.754349 C.ar        1 UNL1     0.1169
     22 C         -7.7369   2.247531   8.973677 C.ar        1 UNL1     -0.0198
     23 C         -6.532632   1.545763   9.105265 C.ar        1 UNL1     -0.0516
     24 O         -9.216899   3.534966   7.593803 O.3        1 UNL1     -0.5068
     25 O         -5.773049   -2.451824   8.263665 O.2        1 UNL1     -0.2917
     26 O         -5.808087   -3.40043   5.740285 O.3        1 UNL1     -0.5058
     27 O         -0.231987   -0.198502   2.541006 O.3        1 UNL1     -0.3648
     28 O         0.263125   -1.952611   -0.5735 O.3        1 UNL1     -0.3841
     29 O         -2.459134   0.359264   -0.264644 O.3        1 UNL1     -0.3863
     30 O         -2.451865   -3.314661   -0.21631 O.3        1 UNL1     -0.3829
     31 H         0.619626   -1.849632   1.815393 H        1 UNL1     0.0937
     32 H         0.0   0.0   0.0 H        1 UNL1     0.0671
     33 H         -1.867331   -1.19161   -1.417162 H        1 UNL1     0.0649
     34 H         -3.845466   -1.832181   0.052139 H        1 UNL1     0.0683
     35 H         -3.205741   -2.941198   2.143809 H        1 UNL1     0.1085
     36 H         -4.8332   -2.962991   3.423919 H        1 UNL1     0.0691
     37 H         -2.785757   0.685103   4.486736 H        1 UNL1     0.0691
     38 H         -3.350014   -1.022346   9.018717 H        1 UNL1     0.0385
     39 H         -4.912719   -0.61095   9.751691 H        1 UNL1     0.0385
     40 H         -3.680197   1.386721   8.824573 H        1 UNL1     0.0789
     41 H         -5.358056   1.935224   5.932972 H        1 UNL1     0.0623
     42 H         -7.490476   3.145896   5.711081 H        1 UNL1     0.0654
     43 H         -8.396455   2.3287   9.829427 H        1 UNL1     0.0654
     44 H         -6.315728   1.096266   10.069501 H        1 UNL1     0.0623
     45 H         -8.987201   4.445516   7.347115 H        1 UNL1     0.2921
     46 H         -5.407962   -3.916087   6.458206 H        1 UNL1     0.2922
     47 H         0.510676   0.356066   2.263942 H        1 UNL1     0.2126
     48 H         1.198518   -1.878952   -0.302674 H        1 UNL1     0.2101
     49 H         -2.02313   0.940461   -0.907998 H        1 UNL1     0.2100
     50 H         -2.688621   -3.327504   -1.166833 H        1 UNL1     0.2102
@<TRIPOS>BOND
     1     1     2    1
     2     1     6    1
     3     2     3    1
     4     3     4    1
     5     3    29    1
     6     3    33    1
     7     4     5    1
     8     5     6    1
     9     5     7    1
    10     5    35    1
    11     7     8    1
    12     8     9   ar
    13     8    13   ar
    14     9    10   ar
    15     9    36    1
    16    10    11   ar
    17    10    26    1
    18    11    12   ar
    19    11    14    1
    20    12    13   ar
    21    12    17    1
    22    13    37    1
    23    14    15    1
    24    14    25    2
    25    15    16    1
    26    15    38    1
    27    15    39    1
    28    16    17    1
    29    16    18    1
    30    16    40    1
    31    18    19   ar
    32    18    23   ar
    33    19    20   ar
    34    19    41    1
    35    20    21   ar
    36    20    42    1
    37    21    22   ar
    38    21    24    1
    39    22    23   ar
    40    22    43    1
    41    23    44    1
    42    24    45    1
    43    26    46    1
    44    27    47    1
    45    28    48    1
    46    29    49    1
    47    30    50    1
    48     1    31    1
    49     1    27    1
    50     2    32    1
    51     2    28    1
    52     4    34    1
    53     4    30    1
