@<TRIPOS>MOLECULE
*****
 50 53 0 0 0
SMALL
GASTEIGER

@<TRIPOS>ATOM
     1 C         0.819381   -1.663169   -1.15468 C.3        1 UNL1     0.1889
     2 C         -0.373493   -0.837156   -0.602689 C.3        1 UNL1     0.1342
     3 C         -1.381211   -1.643988   0.230372 C.3        1 UNL1     0.1174
     4 C         -1.558893   -3.07692   -0.277814 C.3        1 UNL1     0.1456
     5 C         -0.215652   -3.770973   -0.568261 C.3        1 UNL1     0.2326
     6 O         0.532104   -3.00716   -1.511829 O.3        1 UNL1     -0.3076
     7 O         0.531849   -4.092602   0.618802 O.3        1 UNL1     -0.4605
     8 C         1.315283   -5.230717   0.55208 C.ar        1 UNL1     0.1310
     9 C         0.908533   -6.465295   0.034709 C.ar        1 UNL1     0.0226
     10 C         1.783758   -7.557229   -0.004821 C.ar        1 UNL1     0.1343
     11 C         3.095718   -7.434196   0.450664 C.ar        1 UNL1     0.1007
     12 C         3.500955   -6.218142   1.007243 C.ar        1 UNL1     0.1389
     13 C         2.619921   -5.121128   1.049302 C.ar        1 UNL1     0.0229
     14 C         4.087378   -8.530414   0.355425 C.2        1 UNL1     0.1740
     15 C         5.502703   -8.155997   0.684387 C.3        1 UNL1     0.0520
     16 C         5.486435   -7.215459   1.881501 C.3        1 UNL1     0.1322
     17 O         4.734152   -6.018732   1.583201 O.3        1 UNL1     -0.4828
     18 C         5.09858   -7.897474   3.195711 C.ar        1 UNL1     -0.0067
     19 C         6.070259   -8.06058   4.204398 C.ar        1 UNL1     -0.0516
     20 C         5.761457   -8.721935   5.399059 C.ar        1 UNL1     -0.0198
     21 C         4.489536   -9.230043   5.593657 C.ar        1 UNL1     0.1169
     22 C         3.50189   -9.055838   4.632904 C.ar        1 UNL1     -0.0198
     23 C         3.805303   -8.378349   3.445889 C.ar        1 UNL1     -0.0516
     24 O         4.236297   -9.901264   6.753715 O.3        1 UNL1     -0.5068
     25 O         3.811143   -9.659415   -0.041481 O.2        1 UNL1     -0.2917
     26 O         1.324727   -8.733935   -0.520804 O.3        1 UNL1     -0.5058
     27 O         1.988068   -1.571979   -0.355529 O.3        1 UNL1     -0.3648
     28 O         -1.091844   -0.273501   -1.71578 O.3        1 UNL1     -0.3841
     29 O         -1.051847   -1.586354   1.619735 O.3        1 UNL1     -0.3863
     30 O         -2.342136   -3.055617   -1.490977 O.3        1 UNL1     -0.3829
     31 H         1.106288   -1.201245   -2.105674 H        1 UNL1     0.0937
     32 H         0.0   0.0   0.0 H        1 UNL1     0.0671
     33 H         -2.359776   -1.151758   0.141836 H        1 UNL1     0.0649
     34 H         -2.119722   -3.666949   0.455491 H        1 UNL1     0.0683
     35 H         -0.502855   -4.703973   -1.069163 H        1 UNL1     0.1085
     36 H         -0.080609   -6.609278   -0.385988 H        1 UNL1     0.0691
     37 H         2.9594   -4.185607   1.488674 H        1 UNL1     0.0691
     38 H         5.929052   -7.665728   -0.19731 H        1 UNL1     0.0385
     39 H         6.078441   -9.0668   0.881217 H        1 UNL1     0.0385
     40 H         6.516002   -6.862669   2.029998 H        1 UNL1     0.0789
     41 H         7.078433   -7.67885   4.072047 H        1 UNL1     0.0623
     42 H         6.52273   -8.851798   6.164311 H        1 UNL1     0.0654
     43 H         2.498433   -9.436546   4.781385 H        1 UNL1     0.0654
     44 H         3.006511   -8.251192   2.721591 H        1 UNL1     0.0623
     45 H         3.776994   -9.299846   7.362036 H        1 UNL1     0.2921
     46 H         2.029251   -9.158097   -1.035725 H        1 UNL1     0.2922
     47 H         2.185856   -0.646272   -0.156014 H        1 UNL1     0.2126
     48 H         -0.449247   -0.180812   -2.445308 H        1 UNL1     0.2101
     49 H         -0.563857   -2.3849   1.876612 H        1 UNL1     0.2100
     50 H         -1.872938   -2.494849   -2.142978 H        1 UNL1     0.2102
@<TRIPOS>BOND
     1     1     2    1
     2     1     6    1
     3     2     3    1
     4     3     4    1
     5     3    29    1
     6     3    33    1
     7     4     5    1
     8     5     6    1
     9     5     7    1
    10     5    35    1
    11     7     8    1
    12     8     9   ar
    13     8    13   ar
    14     9    10   ar
    15     9    36    1
    16    10    11   ar
    17    10    26    1
    18    11    12   ar
    19    11    14    1
    20    12    13   ar
    21    12    17    1
    22    13    37    1
    23    14    15    1
    24    14    25    2
    25    15    16    1
    26    15    38    1
    27    15    39    1
    28    16    17    1
    29    16    18    1
    30    16    40    1
    31    18    19   ar
    32    18    23   ar
    33    19    20   ar
    34    19    41    1
    35    20    21   ar
    36    20    42    1
    37    21    22   ar
    38    21    24    1
    39    22    23   ar
    40    22    43    1
    41    23    44    1
    42    24    45    1
    43    26    46    1
    44    27    47    1
    45    28    48    1
    46    29    49    1
    47    30    50    1
    48     1    31    1
    49     1    27    1
    50     2    32    1
    51     2    28    1
    52     4    34    1
    53     4    30    1
