@<TRIPOS>MOLECULE
*****
 50 53 0 0 0
SMALL
GASTEIGER

@<TRIPOS>ATOM
     1 C         -0.331032   -1.327573   1.702578 C.3        1 UNL1     0.1889
     2 C         -0.461963   -0.975508   0.196309 C.3        1 UNL1     0.1342
     3 C         -1.902908   -0.963921   -0.336614 C.3        1 UNL1     0.1174
     4 C         -2.788588   -2.023243   0.324087 C.3        1 UNL1     0.1456
     5 C         -2.636658   -2.047693   1.855976 C.3        1 UNL1     0.2326
     6 O         -1.271592   -2.264949   2.205637 O.3        1 UNL1     -0.3076
     7 O         -3.211988   -0.900564   2.507446 O.3        1 UNL1     -0.4605
     8 C         -3.721163   -1.115537   3.775537 C.ar        1 UNL1     0.1310
     9 C         -4.536768   -2.188761   4.150077 C.ar        1 UNL1     0.0226
     10 C         -4.989216   -2.328602   5.467513 C.ar        1 UNL1     0.1343
     11 C         -4.617106   -1.410636   6.448691 C.ar        1 UNL1     0.1007
     12 C         -3.836709   -0.31233   6.077895 C.ar        1 UNL1     0.1389
     13 C         -3.384082   -0.170511   4.752584 C.ar        1 UNL1     0.0229
     14 C         -4.997213   -1.555818   7.872979 C.2        1 UNL1     0.1740
     15 C         -4.32851   -0.606607   8.823444 C.3        1 UNL1     0.0520
     16 C         -4.260233   0.765012   8.16621 C.3        1 UNL1     0.1322
     17 O         -3.502029   0.707854   6.937825 O.3        1 UNL1     -0.4828
     18 C         -5.619926   1.45656   8.04083 C.ar        1 UNL1     -0.0067
     19 C         -5.99976   2.018403   6.804597 C.ar        1 UNL1     -0.0516
     20 C         -7.215474   2.699136   6.668199 C.ar        1 UNL1     -0.0198
     21 C         -8.054883   2.830931   7.759918 C.ar        1 UNL1     0.1169
     22 C         -7.723834   2.259663   8.98176 C.ar        1 UNL1     -0.0198
     23 C         -6.516655   1.562971   9.113653 C.ar        1 UNL1     -0.0516
     24 O         -9.213047   3.533156   7.598865 O.3        1 UNL1     -0.5068
     25 O         -5.745349   -2.437694   8.286587 O.2        1 UNL1     -0.2917
     26 O         -5.782805   -3.397195   5.767364 O.3        1 UNL1     -0.5058
     27 O         -0.226074   -0.188854   2.542274 O.3        1 UNL1     -0.3648
     28 O         0.268858   -1.954015   -0.56601 O.3        1 UNL1     -0.3841
     29 O         -2.460927   0.349486   -0.261041 O.3        1 UNL1     -0.3863
     30 O         -2.440556   -3.32416   -0.197619 O.3        1 UNL1     -0.3829
     31 H         0.629889   -1.839941   1.821698 H        1 UNL1     0.0937
     32 H         0.0   0.0   0.0 H        1 UNL1     0.0671
     33 H         -1.866003   -1.204023   -1.408393 H        1 UNL1     0.0649
     34 H         -3.838842   -1.845517   0.06761 H        1 UNL1     0.0683
     35 H         -3.190909   -2.943645   2.162496 H        1 UNL1     0.1085
     36 H         -4.815007   -2.966047   3.446849 H        1 UNL1     0.0691
     37 H         -2.778631   0.694113   4.489247 H        1 UNL1     0.0691
     38 H         -3.325868   -0.996038   9.029791 H        1 UNL1     0.0385
     39 H         -4.888359   -0.587306   9.764707 H        1 UNL1     0.0385
     40 H         -3.665453   1.410938   8.826161 H        1 UNL1     0.0789
     41 H         -5.35424   1.93651   5.934972 H        1 UNL1     0.0623
     42 H         -7.491664   3.138266   5.712743 H        1 UNL1     0.0654
     43 H         -8.380762   2.343919   9.839231 H        1 UNL1     0.0654
     44 H         -6.294892   1.120337   10.079956 H        1 UNL1     0.0623
     45 H         -8.987636   4.440675   7.33749 H        1 UNL1     0.2921
     46 H         -5.378387   -3.909072   6.485584 H        1 UNL1     0.2922
     47 H         0.516597   0.365073   2.26395 H        1 UNL1     0.2126
     48 H         1.201804   -1.887613   -0.285057 H        1 UNL1     0.2101
     49 H         -2.022456   0.931709   -0.901784 H        1 UNL1     0.2100
     50 H         -2.673996   -3.339825   -1.148919 H        1 UNL1     0.2102
@<TRIPOS>BOND
     1     1     2    1
     2     1     6    1
     3     2     3    1
     4     3     4    1
     5     3    29    1
     6     3    33    1
     7     4     5    1
     8     5     6    1
     9     5     7    1
    10     5    35    1
    11     7     8    1
    12     8     9   ar
    13     8    13   ar
    14     9    10   ar
    15     9    36    1
    16    10    11   ar
    17    10    26    1
    18    11    12   ar
    19    11    14    1
    20    12    13   ar
    21    12    17    1
    22    13    37    1
    23    14    15    1
    24    14    25    2
    25    15    16    1
    26    15    38    1
    27    15    39    1
    28    16    17    1
    29    16    18    1
    30    16    40    1
    31    18    19   ar
    32    18    23   ar
    33    19    20   ar
    34    19    41    1
    35    20    21   ar
    36    20    42    1
    37    21    22   ar
    38    21    24    1
    39    22    23   ar
    40    22    43    1
    41    23    44    1
    42    24    45    1
    43    26    46    1
    44    27    47    1
    45    28    48    1
    46    29    49    1
    47    30    50    1
    48     1    31    1
    49     1    27    1
    50     2    32    1
    51     2    28    1
    52     4    34    1
    53     4    30    1
