@<TRIPOS>MOLECULE
*****
 50 53 0 0 0
SMALL
GASTEIGER

@<TRIPOS>ATOM
     1 C         -0.514852   -1.194983   1.754351 C.3        1 UNL1     0.1889
     2 C         -0.509309   -0.945967   0.222065 C.3        1 UNL1     0.1342
     3 C         -1.900255   -0.931356   -0.430255 C.3        1 UNL1     0.1174
     4 C         -2.872677   -1.916406   0.223343 C.3        1 UNL1     0.1456
     5 C         -2.848326   -1.837535   1.760728 C.3        1 UNL1     0.2326
     6 O         -1.524828   -2.067958   2.238352 O.3        1 UNL1     -0.3076
     7 O         -3.436195   -0.63181   2.282224 O.3        1 UNL1     -0.4605
     8 C         -4.062033   -0.744674   3.510685 C.ar        1 UNL1     0.1310
     9 C         -4.946007   -1.764547   3.879129 C.ar        1 UNL1     0.0226
     10 C         -5.51695   -1.800885   5.156863 C.ar        1 UNL1     0.1343
     11 C         -5.198923   -0.830405   6.106004 C.ar        1 UNL1     0.1007
     12 C         -4.349409   0.215813   5.736493 C.ar        1 UNL1     0.1389
     13 C         -3.777526   0.253584   4.450821 C.ar        1 UNL1     0.0229
     14 C         -5.707409   -0.867049   7.496779 C.2        1 UNL1     0.1740
     15 C         -5.090297   0.123414   8.44002 C.3        1 UNL1     0.0520
     16 C         -4.914597   1.444621   7.704155 C.3        1 UNL1     0.1322
     17 O         -4.054284   1.281162   6.55515 O.3        1 UNL1     -0.4828
     18 C         -6.231881   2.167455   7.412605 C.ar        1 UNL1     -0.0067
     19 C         -6.473598   2.67123   6.118002 C.ar        1 UNL1     -0.0516
     20 C         -7.646959   3.378478   5.82993 C.ar        1 UNL1     -0.0198
     21 C         -8.580906   3.594486   6.827383 C.ar        1 UNL1     0.1169
     22 C         -8.386686   3.08193   8.103472 C.ar        1 UNL1     -0.0198
     23 C         -7.221936   2.358755   8.387074 C.ar        1 UNL1     -0.0516
     24 O         -9.693941   4.320155   6.519231 O.3        1 UNL1     -0.5068
     25 O         -6.520646   -1.695526   7.897723 O.2        1 UNL1     -0.2917
     26 O         -6.372294   -2.821874   5.452756 O.3        1 UNL1     -0.5058
     27 O         -0.440919   -0.003534   2.521014 O.3        1 UNL1     -0.3648
     28 O         0.248268   -1.995699   -0.407891 O.3        1 UNL1     -0.3841
     29 O         -2.41783   0.399265   -0.49105 O.3        1 UNL1     -0.3863
     30 O         -2.527094   -3.25999   -0.17796 O.3        1 UNL1     -0.3829
     31 H         0.415103   -1.724505   1.988592 H        1 UNL1     0.0937
     32 H         0.0   0.0   0.0 H        1 UNL1     0.0671
     33 H         -1.783363   -1.247031   -1.476393 H        1 UNL1     0.0649
     34 H         -3.891625   -1.7277   -0.132375 H        1 UNL1     0.0683
     35 H         -3.45594   -2.693848   2.079182 H        1 UNL1     0.1085
     36 H         -5.189795   -2.578787   3.205555 H        1 UNL1     0.0691
     37 H         -3.120126   1.079411   4.18752 H        1 UNL1     0.0691
     38 H         -4.1245   -0.281706   8.760398 H        1 UNL1     0.0385
     39 H         -5.729379   0.223589   9.323942 H        1 UNL1     0.0385
     40 H         -4.356709   2.115226   8.371664 H        1 UNL1     0.0789
     41 H         -5.751866   2.522884   5.320038 H        1 UNL1     0.0623
     42 H         -7.816323   3.772214   4.830781 H        1 UNL1     0.0654
     43 H         -9.118538   3.232298   8.888134 H        1 UNL1     0.0654
     44 H         -7.107869   1.963699   9.391944 H        1 UNL1     0.0623
     45 H         -9.414376   5.207675   6.24198 H        1 UNL1     0.2921
     46 H         -6.052086   -3.295222   6.236861 H        1 UNL1     0.2922
     47 H         0.338216   0.510421   2.266735 H        1 UNL1     0.2126
     48 H         1.161421   -1.923495   -0.069259 H        1 UNL1     0.2101
     49 H         -1.914042   0.920151   -1.13655 H        1 UNL1     0.2100
     50 H         -2.68717   -3.337507   -1.141328 H        1 UNL1     0.2102
@<TRIPOS>BOND
     1     1     2    1
     2     1     6    1
     3     2     3    1
     4     3     4    1
     5     3    29    1
     6     3    33    1
     7     4     5    1
     8     5     6    1
     9     5     7    1
    10     5    35    1
    11     7     8    1
    12     8     9   ar
    13     8    13   ar
    14     9    10   ar
    15     9    36    1
    16    10    11   ar
    17    10    26    1
    18    11    12   ar
    19    11    14    1
    20    12    13   ar
    21    12    17    1
    22    13    37    1
    23    14    15    1
    24    14    25    2
    25    15    16    1
    26    15    38    1
    27    15    39    1
    28    16    17    1
    29    16    18    1
    30    16    40    1
    31    18    19   ar
    32    18    23   ar
    33    19    20   ar
    34    19    41    1
    35    20    21   ar
    36    20    42    1
    37    21    22   ar
    38    21    24    1
    39    22    23   ar
    40    22    43    1
    41    23    44    1
    42    24    45    1
    43    26    46    1
    44    27    47    1
    45    28    48    1
    46    29    49    1
    47    30    50    1
    48     1    31    1
    49     1    27    1
    50     2    32    1
    51     2    28    1
    52     4    34    1
    53     4    30    1
