@<TRIPOS>MOLECULE
*****
 50 53 0 0 0
SMALL
GASTEIGER

@<TRIPOS>ATOM
     1 C         -0.820775   0.243723   2.009411 C.3        1 UNL1     0.1889
     2 C         -0.847517   0.505372   0.479455 C.3        1 UNL1     0.1342
     3 C         -0.835792   1.989516   0.082411 C.3        1 UNL1     0.1174
     4 C         -1.607966   2.872986   1.065439 C.3        1 UNL1     0.1456
     5 C         -1.261102   2.565234   2.533546 C.3        1 UNL1     0.2326
     6 O         -1.509918   1.18956   2.813693 O.3        1 UNL1     -0.3076
     7 O         0.061321   2.989416   2.911151 O.3        1 UNL1     -0.4605
     8 C         0.359533   4.320599   2.681914 C.ar        1 UNL1     0.1310
     9 C         1.182666   5.11668   3.48566 C.ar        1 UNL1     0.0226
     10 C         1.438311   6.453834   3.159212 C.ar        1 UNL1     0.1343
     11 C         0.895599   7.021103   2.007036 C.ar        1 UNL1     0.1007
     12 C         0.039074   6.248119   1.218591 C.ar        1 UNL1     0.1389
     13 C         -0.219937   4.904423   1.548475 C.ar        1 UNL1     0.0229
     14 C         1.199878   8.403251   1.569731 C.2        1 UNL1     0.1740
     15 C         0.713009   8.772679   0.199318 C.3        1 UNL1     0.0520
     16 C         -0.673948   8.175993   0.003683 C.3        1 UNL1     0.1322
     17 O         -0.634563   6.736823   0.123307 O.3        1 UNL1     -0.4828
     18 C         -1.759967   8.852854   0.843412 C.ar        1 UNL1     -0.0067
     19 C         -1.507613   9.139988   2.200646 C.ar        1 UNL1     -0.0516
     20 C         -2.495474   9.715149   3.008905 C.ar        1 UNL1     -0.0198
     21 C         -3.739359   10.00049   2.474903 C.ar        1 UNL1     0.1169
     22 C         -4.007057   9.760158   1.13348 C.ar        1 UNL1     -0.0198
     23 C         -3.013337   9.202038   0.320412 C.ar        1 UNL1     -0.0516
     24 O         -4.688631   10.525236   3.301901 O.3        1 UNL1     -0.5068
     25 O         1.873567   9.188816   2.23118 O.2        1 UNL1     -0.2917
     26 O         2.248902   7.176274   3.985412 O.3        1 UNL1     -0.5058
     27 O         0.477371   -0.02601   2.514234 O.3        1 UNL1     -0.3648
     28 O         -2.049806   -0.073248   -0.061291 O.3        1 UNL1     -0.3841
     29 O         0.500641   2.444702   -0.138688 O.3        1 UNL1     -0.3863
     30 O         -3.02479   2.671507   0.871263 O.3        1 UNL1     -0.3829
     31 H         -1.374118   -0.686695   2.177378 H        1 UNL1     0.0937
     32 H         0.0   0.0   0.0 H        1 UNL1     0.0671
     33 H         -1.339638   2.0805   -0.889999 H        1 UNL1     0.0649
     34 H         -1.403196   3.929372   0.859238 H        1 UNL1     0.0683
     35 H         -1.995696   3.145266   3.106096 H        1 UNL1     0.1085
     36 H         1.679134   4.71875   4.363892 H        1 UNL1     0.0691
     37 H         -0.891223   4.324321   0.918912 H        1 UNL1     0.0691
     38 H         1.424593   8.364278   -0.526204 H        1 UNL1     0.0385
     39 H         0.712109   9.863575   0.100706 H        1 UNL1     0.0385
     40 H         -0.959702   8.356904   -1.04137 H        1 UNL1     0.0789
     41 H         -0.542357   8.917053   2.645879 H        1 UNL1     0.0623
     42 H         -2.292581   9.920838   4.057017 H        1 UNL1     0.0654
     43 H         -4.97279   9.993666   0.701341 H        1 UNL1     0.0654
     44 H         -3.253595   9.037476   -0.725552 H        1 UNL1     0.0623
     45 H         -4.796326   9.930292   4.061611 H        1 UNL1     0.2921
     46 H         2.029853   6.976494   4.909272 H        1 UNL1     0.2922
     47 H         0.912746   -0.700938   1.974994 H        1 UNL1     0.2126
     48 H         -2.312667   -0.79101   0.546537 H        1 UNL1     0.2101
     49 H         0.648184   3.278163   0.336042 H        1 UNL1     0.2100
     50 H         -3.346614   2.084284   1.586323 H        1 UNL1     0.2102
@<TRIPOS>BOND
     1     1     2    1
     2     1     6    1
     3     2     3    1
     4     3     4    1
     5     3    29    1
     6     3    33    1
     7     4     5    1
     8     5     6    1
     9     5     7    1
    10     5    35    1
    11     7     8    1
    12     8     9   ar
    13     8    13   ar
    14     9    10   ar
    15     9    36    1
    16    10    11   ar
    17    10    26    1
    18    11    12   ar
    19    11    14    1
    20    12    13   ar
    21    12    17    1
    22    13    37    1
    23    14    15    1
    24    14    25    2
    25    15    16    1
    26    15    38    1
    27    15    39    1
    28    16    17    1
    29    16    18    1
    30    16    40    1
    31    18    19   ar
    32    18    23   ar
    33    19    20   ar
    34    19    41    1
    35    20    21   ar
    36    20    42    1
    37    21    22   ar
    38    21    24    1
    39    22    23   ar
    40    22    43    1
    41    23    44    1
    42    24    45    1
    43    26    46    1
    44    27    47    1
    45    28    48    1
    46    29    49    1
    47    30    50    1
    48     1    31    1
    49     1    27    1
    50     2    32    1
    51     2    28    1
    52     4    34    1
    53     4    30    1
