@<TRIPOS>MOLECULE
*****
 50 53 0 0 0
SMALL
GASTEIGER

@<TRIPOS>ATOM
     1 C         -0.370591   -1.397974   1.636807 C.3        1 UNL1     0.1889
     2 C         -0.487779   -0.971337   0.148792 C.3        1 UNL1     0.1342
     3 C         -1.926323   -0.896753   -0.385524 C.3        1 UNL1     0.1174
     4 C         -2.841252   -1.962802   0.222389 C.3        1 UNL1     0.1456
     5 C         -2.694626   -2.064075   1.75164 C.3        1 UNL1     0.2326
     6 O         -1.336735   -2.333323   2.092969 O.3        1 UNL1     -0.3076
     7 O         -3.241873   -0.9346   2.456003 O.3        1 UNL1     -0.4605
     8 C         -3.770948   -1.198395   3.706611 C.ar        1 UNL1     0.1310
     9 C         -4.619937   -2.26571   4.018634 C.ar        1 UNL1     0.0226
     10 C         -5.090794   -2.458559   5.32286 C.ar        1 UNL1     0.1343
     11 C         -4.704565   -1.601652   6.352607 C.ar        1 UNL1     0.1007
     12 C         -3.89012   -0.508497   6.045239 C.ar        1 UNL1     0.1389
     13 C         -3.418942   -0.313284   4.733251 C.ar        1 UNL1     0.0229
     14 C         -5.104457   -1.807211   7.763984 C.2        1 UNL1     0.1740
     15 C         -4.420564   -0.925897   8.767539 C.3        1 UNL1     0.0520
     16 C         -4.307189   0.474439   8.180886 C.3        1 UNL1     0.1322
     17 O         -3.537133   0.457578   6.958676 O.3        1 UNL1     -0.4828
     18 C         -5.645837   1.209277   8.077151 C.ar        1 UNL1     -0.0067
     19 C         -5.661123   2.573803   7.722119 C.ar        1 UNL1     -0.0516
     20 C         -6.864097   3.287585   7.664403 C.ar        1 UNL1     -0.0198
     21 C         -8.055048   2.651551   7.965939 C.ar        1 UNL1     0.1169
     22 C         -8.075796   1.300345   8.28633 C.ar        1 UNL1     -0.0198
     23 C         -6.874914   0.581768   8.326145 C.ar        1 UNL1     -0.0516
     24 O         -9.202499   3.38834   7.935967 O.3        1 UNL1     -0.5068
     25 O         -5.881177   -2.687342   8.125317 O.2        1 UNL1     -0.2917
     26 O         -5.916812   -3.51813   5.560741 O.3        1 UNL1     -0.5058
     27 O         -0.238569   -0.30363   2.529985 O.3        1 UNL1     -0.3648
     28 O         0.219627   -1.931229   -0.657986 O.3        1 UNL1     -0.3841
     29 O         -2.450203   0.425705   -0.24845 O.3        1 UNL1     -0.3863
     30 O         -2.525618   -3.246074   -0.360086 O.3        1 UNL1     -0.3829
     31 H         0.576309   -1.940366   1.733082 H        1 UNL1     0.0937
     32 H         0.0   0.0   0.0 H        1 UNL1     0.0671
     33 H         -1.892448   -1.086469   -1.467458 H        1 UNL1     0.0649
     34 H         -3.885749   -1.745688   -0.027188 H        1 UNL1     0.0683
     35 H         -3.272922   -2.958806   2.014145 H        1 UNL1     0.1085
     36 H         -4.911576   -2.998713   3.274475 H        1 UNL1     0.0691
     37 H         -2.787003   0.546106   4.519722 H        1 UNL1     0.0691
     38 H         -3.431398   -1.353149   8.963842 H        1 UNL1     0.0385
     39 H         -4.990178   -0.938026   9.703044 H        1 UNL1     0.0385
     40 H         -3.702281   1.069582   8.878317 H        1 UNL1     0.0789
     41 H         -4.738763   3.098149   7.489819 H        1 UNL1     0.0623
     42 H         -6.861538   4.342377   7.400927 H        1 UNL1     0.0654
     43 H         -9.004412   0.78873   8.509561 H        1 UNL1     0.0654
     44 H         -6.92941   -0.474871   8.56984 H        1 UNL1     0.0623
     45 H         -9.154755   4.058947   8.636484 H        1 UNL1     0.2921
     46 H         -5.70368   -3.907136   6.423679 H        1 UNL1     0.2922
     47 H         0.506542   0.254748   2.26753 H        1 UNL1     0.2126
     48 H         1.171794   -1.779262   -0.503011 H        1 UNL1     0.2101
     49 H         -2.143576   0.979986   -0.983668 H        1 UNL1     0.2100
     50 H         -2.782752   -3.219729   -1.305021 H        1 UNL1     0.2102
@<TRIPOS>BOND
     1     1     2    1
     2     1     6    1
     3     2     3    1
     4     3     4    1
     5     3    29    1
     6     3    33    1
     7     4     5    1
     8     5     6    1
     9     5     7    1
    10     5    35    1
    11     7     8    1
    12     8     9   ar
    13     8    13   ar
    14     9    10   ar
    15     9    36    1
    16    10    11   ar
    17    10    26    1
    18    11    12   ar
    19    11    14    1
    20    12    13   ar
    21    12    17    1
    22    13    37    1
    23    14    15    1
    24    14    25    2
    25    15    16    1
    26    15    38    1
    27    15    39    1
    28    16    17    1
    29    16    18    1
    30    16    40    1
    31    18    19   ar
    32    18    23   ar
    33    19    20   ar
    34    19    41    1
    35    20    21   ar
    36    20    42    1
    37    21    22   ar
    38    21    24    1
    39    22    23   ar
    40    22    43    1
    41    23    44    1
    42    24    45    1
    43    26    46    1
    44    27    47    1
    45    28    48    1
    46    29    49    1
    47    30    50    1
    48     1    31    1
    49     1    27    1
    50     2    32    1
    51     2    28    1
    52     4    34    1
    53     4    30    1
