@<TRIPOS>MOLECULE
*****
 50 53 0 0 0
SMALL
GASTEIGER

@<TRIPOS>ATOM
     1 C         -0.350651   -1.338213   1.690276 C.3        1 UNL1     0.1889
     2 C         -0.471663   -0.972814   0.186355 C.3        1 UNL1     0.1342
     3 C         -1.910053   -0.943802   -0.352773 C.3        1 UNL1     0.1174
     4 C         -2.808242   -2.000318   0.295416 C.3        1 UNL1     0.1456
     5 C         -2.663375   -2.038524   1.827707 C.3        1 UNL1     0.2326
     6 O         -1.301909   -2.271019   2.181578 O.3        1 UNL1     -0.3076
     7 O         -3.231177   -0.891504   2.485937 O.3        1 UNL1     -0.4605
     8 C         -3.758545   -1.11455   3.745168 C.ar        1 UNL1     0.1310
     9 C         -4.592921   -2.181001   4.097017 C.ar        1 UNL1     0.0226
     10 C         -5.063166   -2.330279   5.407165 C.ar        1 UNL1     0.1343
     11 C         -4.690751   -1.429093   6.403665 C.ar        1 UNL1     0.1007
     12 C         -3.891286   -0.337132   6.055437 C.ar        1 UNL1     0.1389
     13 C         -3.420742   -0.185786   4.737441 C.ar        1 UNL1     0.0229
     14 C         -5.090035   -1.585952   7.821452 C.2        1 UNL1     0.1740
     15 C         -4.420287   -0.657173   8.791172 C.3        1 UNL1     0.0520
     16 C         -4.32569   0.721072   8.151289 C.3        1 UNL1     0.1322
     17 O         -3.553457   0.668195   6.931482 O.3        1 UNL1     -0.4828
     18 C         -5.674388   1.432375   8.017922 C.ar        1 UNL1     -0.0067
     19 C         -6.02404   2.029241   6.78922 C.ar        1 UNL1     -0.0516
     20 C         -7.228716   2.728214   6.647247 C.ar        1 UNL1     -0.0198
     21 C         -8.08696   2.843464   7.726118 C.ar        1 UNL1     0.1169
     22 C         -7.78592   2.238139   8.939294 C.ar        1 UNL1     -0.0198
     23 C         -6.589884   1.523432   9.076209 C.ar        1 UNL1     -0.0516
     24 O         -9.233375   3.563812   7.561106 O.3        1 UNL1     -0.5068
     25 O         -5.854869   -2.462461   8.215465 O.2        1 UNL1     -0.2917
     26 O         -5.874561   -3.391515   5.684655 O.3        1 UNL1     -0.5058
     27 O         -0.239115   -0.207317   2.539641 O.3        1 UNL1     -0.3648
     28 O         0.253646   -1.951746   -0.580669 O.3        1 UNL1     -0.3841
     29 O         -2.456467   0.373977   -0.268988 O.3        1 UNL1     -0.3863
     30 O         -2.4697   -3.300094   -0.235302 O.3        1 UNL1     -0.3829
     31 H         0.605043   -1.860255   1.809447 H        1 UNL1     0.0937
     32 H         0.0   0.0   0.0 H        1 UNL1     0.0671
     33 H         -1.870546   -1.175565   -1.426293 H        1 UNL1     0.0649
     34 H         -3.855687   -1.81097   0.035785 H        1 UNL1     0.0683
     35 H         -3.227091   -2.931839   2.124509 H        1 UNL1     0.1085
     36 H         -4.872973   -2.946086   3.381239 H        1 UNL1     0.0691
     37 H         -2.800625   0.673626   4.49176 H        1 UNL1     0.0691
     38 H         -3.425524   -1.062538   9.004837 H        1 UNL1     0.0385
     39 H         -4.991217   -0.641435   9.725821 H        1 UNL1     0.0385
     40 H         -3.730381   1.351049   8.826016 H        1 UNL1     0.0789
     41 H         -5.363235   1.960807   5.929974 H        1 UNL1     0.0623
     42 H         -7.481525   3.194194   5.698057 H        1 UNL1     0.0654
     43 H         -8.457873   2.309379   9.786238 H        1 UNL1     0.0654
     44 H         -6.391735   1.054358   10.035141 H        1 UNL1     0.0623
     45 H         -8.992033   4.481836   7.356891 H        1 UNL1     0.2921
     46 H         -5.486471   -3.916493   6.402426 H        1 UNL1     0.2922
     47 H         0.497064   0.352784   2.256467 H        1 UNL1     0.2126
     48 H         1.192625   -1.866909   -0.326005 H        1 UNL1     0.2101
     49 H         -2.01572   0.955297   -0.908991 H        1 UNL1     0.2100
     50 H         -2.704267   -3.30784   -1.186423 H        1 UNL1     0.2102
@<TRIPOS>BOND
     1     1     2    1
     2     1     6    1
     3     2     3    1
     4     3     4    1
     5     3    29    1
     6     3    33    1
     7     4     5    1
     8     5     6    1
     9     5     7    1
    10     5    35    1
    11     7     8    1
    12     8     9   ar
    13     8    13   ar
    14     9    10   ar
    15     9    36    1
    16    10    11   ar
    17    10    26    1
    18    11    12   ar
    19    11    14    1
    20    12    13   ar
    21    12    17    1
    22    13    37    1
    23    14    15    1
    24    14    25    2
    25    15    16    1
    26    15    38    1
    27    15    39    1
    28    16    17    1
    29    16    18    1
    30    16    40    1
    31    18    19   ar
    32    18    23   ar
    33    19    20   ar
    34    19    41    1
    35    20    21   ar
    36    20    42    1
    37    21    22   ar
    38    21    24    1
    39    22    23   ar
    40    22    43    1
    41    23    44    1
    42    24    45    1
    43    26    46    1
    44    27    47    1
    45    28    48    1
    46    29    49    1
    47    30    50    1
    48     1    31    1
    49     1    27    1
    50     2    32    1
    51     2    28    1
    52     4    34    1
    53     4    30    1
