@<TRIPOS>MOLECULE
*****
 50 53 0 0 0
SMALL
GASTEIGER

@<TRIPOS>ATOM
     1 C         -0.334691   -1.33036   1.699685 C.3        1 UNL1     0.1889
     2 C         -0.464077   -0.974952   0.194067 C.3        1 UNL1     0.1342
     3 C         -1.904706   -0.95931   -0.339609 C.3        1 UNL1     0.1174
     4 C         -2.792924   -2.01815   0.31845 C.3        1 UNL1     0.1456
     5 C         -2.641879   -2.046039   1.850367 C.3        1 UNL1     0.2326
     6 O         -1.277454   -2.26682   2.200321 O.3        1 UNL1     -0.3076
     7 O         -3.2152   -0.89906   2.503866 O.3        1 UNL1     -0.4605
     8 C         -3.725932   -1.115675   3.771052 C.ar        1 UNL1     0.1310
     9 C         -4.544249   -2.187892   4.142545 C.ar        1 UNL1     0.0226
     10 C         -4.998128   -2.329611   5.459288 C.ar        1 UNL1     0.1343
     11 C         -4.624804   -1.414633   6.442794 C.ar        1 UNL1     0.1007
     12 C         -3.841642   -0.317263   6.075069 C.ar        1 UNL1     0.1389
     13 C         -3.387573   -0.173549   4.750456 C.ar        1 UNL1     0.0229
     14 C         -5.006445   -1.562088   7.866437 C.2        1 UNL1     0.1740
     15 C         -4.336434   -0.616461   8.819549 C.3        1 UNL1     0.0520
     16 C         -4.264536   0.75644   8.165385 C.3        1 UNL1     0.1322
     17 O         -3.505417   0.700282   6.937519 O.3        1 UNL1     -0.4828
     18 C         -5.622575   1.451298   8.040374 C.ar        1 UNL1     -0.0067
     19 C         -5.999313   2.018331   6.805564 C.ar        1 UNL1     -0.0516
     20 C         -7.213378   2.70211   6.669718 C.ar        1 UNL1     -0.0198
     21 C         -8.054196   2.831795   7.760606 C.ar        1 UNL1     0.1169
     22 C         -7.726239   2.255491   8.980916 C.ar        1 UNL1     -0.0198
     23 C         -6.520735   1.555788   9.112187 C.ar        1 UNL1     -0.0516
     24 O         -9.210627   3.537031   7.60027 O.3        1 UNL1     -0.5068
     25 O         -5.7569   -2.443196   8.277476 O.2        1 UNL1     -0.2917
     26 O         -5.794355   -3.397084   5.756122 O.3        1 UNL1     -0.5058
     27 O         -0.227846   -0.193575   2.541761 O.3        1 UNL1     -0.3648
     28 O         0.265142   -1.953406   -0.569853 O.3        1 UNL1     -0.3841
     29 O         -2.46006   0.355087   -0.261656 O.3        1 UNL1     -0.3863
     30 O         -2.447287   -3.318715   -0.205723 O.3        1 UNL1     -0.3829
     31 H         0.625107   -1.844948   1.818278 H        1 UNL1     0.0937
     32 H         0.0   0.0   0.0 H        1 UNL1     0.0671
     33 H         -1.867711   -1.197299   -1.411856 H        1 UNL1     0.0649
     34 H         -3.84267   -1.837739   0.061768 H        1 UNL1     0.0683
     35 H         -3.19814   -2.941472   2.154758 H        1 UNL1     0.1085
     36 H         -4.823625   -2.963011   3.437378 H        1 UNL1     0.0691
     37 H         -2.77997   0.690296   4.489529 H        1 UNL1     0.0691
     38 H         -3.33484   -1.008583   9.025888 H        1 UNL1     0.0385
     39 H         -4.897039   -0.597974   9.760378 H        1 UNL1     0.0385
     40 H         -3.668876   1.399587   8.827255 H        1 UNL1     0.0789
     41 H         -5.352622   1.938168   5.936648 H        1 UNL1     0.0623
     42 H         -7.487165   3.145215   5.715407 H        1 UNL1     0.0654
     43 H         -8.384314   2.338085   9.837669 H        1 UNL1     0.0654
     44 H         -6.301399   1.109255   10.077249 H        1 UNL1     0.0623
     45 H         -8.982903   4.444995   7.342472 H        1 UNL1     0.2921
     46 H         -6.574544   -3.389028   5.179361 H        1 UNL1     0.2922
     47 H         0.516115   0.359388   2.264969 H        1 UNL1     0.2126
     48 H         1.19807   -1.8895   -0.288261 H        1 UNL1     0.2101
     49 H         -2.020042   0.937712   -0.900973 H        1 UNL1     0.2100
     50 H         -2.680241   -3.331958   -1.15718 H        1 UNL1     0.2102
@<TRIPOS>BOND
     1     1     2    1
     2     1     6    1
     3     2     3    1
     4     3     4    1
     5     3    29    1
     6     3    33    1
     7     4     5    1
     8     5     6    1
     9     5     7    1
    10     5    35    1
    11     7     8    1
    12     8     9   ar
    13     8    13   ar
    14     9    10   ar
    15     9    36    1
    16    10    11   ar
    17    10    26    1
    18    11    12   ar
    19    11    14    1
    20    12    13   ar
    21    12    17    1
    22    13    37    1
    23    14    15    1
    24    14    25    2
    25    15    16    1
    26    15    38    1
    27    15    39    1
    28    16    17    1
    29    16    18    1
    30    16    40    1
    31    18    19   ar
    32    18    23   ar
    33    19    20   ar
    34    19    41    1
    35    20    21   ar
    36    20    42    1
    37    21    22   ar
    38    21    24    1
    39    22    23   ar
    40    22    43    1
    41    23    44    1
    42    24    45    1
    43    26    46    1
    44    27    47    1
    45    28    48    1
    46    29    49    1
    47    30    50    1
    48     1    31    1
    49     1    27    1
    50     2    32    1
    51     2    28    1
    52     4    34    1
    53     4    30    1
