@<TRIPOS>MOLECULE
*****
 50 53 0 0 0
SMALL
GASTEIGER

@<TRIPOS>ATOM
     1 C         0.082746   -0.870566   -2.001518 C.3        1 UNL1     0.1889
     2 C         -0.016943   0.345109   -1.041237 C.3        1 UNL1     0.1342
     3 C         -1.253359   1.231639   -1.255257 C.3        1 UNL1     0.1174
     4 C         -1.666038   1.329567   -2.726047 C.3        1 UNL1     0.1456
     5 C         -1.691128   -0.042199   -3.424612 C.3        1 UNL1     0.2326
     6 O         -0.413818   -0.666357   -3.316097 O.3        1 UNL1     -0.3076
     7 O         -2.772424   -0.886912   -2.990355 O.3        1 UNL1     -0.4605
     8 C         -3.061602   -0.854371   -1.638007 C.ar        1 UNL1     0.1310
     9 C         -2.554837   -1.738514   -0.679477 C.ar        1 UNL1     0.0226
     10 C         -2.894779   -1.612589   0.672738 C.ar        1 UNL1     0.1343
     11 C         -3.731714   -0.583891   1.103041 C.ar        1 UNL1     0.1007
     12 C         -4.276657   0.280275   0.149606 C.ar        1 UNL1     0.1389
     13 C         -3.936793   0.151835   -1.21033 C.ar        1 UNL1     0.0229
     14 C         -4.056595   -0.353564   2.52977 C.2        1 UNL1     0.1740
     15 C         -4.784486   0.923304   2.831981 C.3        1 UNL1     0.0520
     16 C         -5.824222   1.15426   1.744063 C.3        1 UNL1     0.1322
     17 O         -5.195285   1.259809   0.447773 O.3        1 UNL1     -0.4828
     18 C         -7.001956   0.178289   1.800151 C.ar        1 UNL1     -0.0067
     19 C         -8.136412   0.415015   0.996917 C.ar        1 UNL1     -0.0516
     20 C         -9.24986   -0.431347   1.059099 C.ar        1 UNL1     -0.0198
     21 C         -9.244135   -1.511133   1.923886 C.ar        1 UNL1     0.1169
     22 C         -8.128637   -1.789506   2.702995 C.ar        1 UNL1     -0.0198
     23 C         -7.007856   -0.95392   2.627474 C.ar        1 UNL1     -0.0516
     24 O         -10.361206   -2.291409   1.984897 O.3        1 UNL1     -0.5068
     25 O         -3.695602   -1.101451   3.434664 O.2        1 UNL1     -0.2917
     26 O         -2.367451   -2.508027   1.556877 O.3        1 UNL1     -0.5058
     27 O         -0.406456   -2.077393   -1.438459 O.3        1 UNL1     -0.3648
     28 O         1.143681   1.174898   -1.233869 O.3        1 UNL1     -0.3841
     29 O         -2.326004   0.819464   -0.405742 O.3        1 UNL1     -0.3863
     30 O         -0.736906   2.188167   -3.422616 O.3        1 UNL1     -0.3829
     31 H         1.150519   -1.05921   -2.157569 H        1 UNL1     0.0937
     32 H         0.0   0.0   0.0 H        1 UNL1     0.0671
     33 H         -0.997007   2.249162   -0.928684 H        1 UNL1     0.0649
     34 H         -2.654722   1.794723   -2.80689 H        1 UNL1     0.0683
     35 H         -1.837293   0.203091   -4.484021 H        1 UNL1     0.1085
     36 H         -1.855519   -2.524706   -0.942114 H        1 UNL1     0.0691
     37 H         -4.375421   0.836629   -1.932934 H        1 UNL1     0.0691
     38 H         -4.044369   1.730444   2.84871 H        1 UNL1     0.0385
     39 H         -5.235678   0.852267   3.82755 H        1 UNL1     0.0385
     40 H         -6.260808   2.146882   1.919035 H        1 UNL1     0.0789
     41 H         -8.169196   1.261113   0.316701 H        1 UNL1     0.0623
     42 H         -10.123311   -0.23139   0.443378 H        1 UNL1     0.0654
     43 H         -8.107681   -2.641073   3.372551 H        1 UNL1     0.0654
     44 H         -6.149775   -1.207314   3.242562 H        1 UNL1     0.0623
     45 H         -10.423227   -2.668954   2.87727 H        1 UNL1     0.2921
     46 H         -3.053919   -3.138073   1.827459 H        1 UNL1     0.2922
     47 H         0.316508   -2.709437   -1.32139 H        1 UNL1     0.2126
     48 H         0.81799   2.08757   -1.355065 H        1 UNL1     0.2101
     49 H         -2.265855   1.277629   0.44764 H        1 UNL1     0.2100
     50 H         -0.05743   2.48095   -2.780507 H        1 UNL1     0.2102
@<TRIPOS>BOND
     1     1     2    1
     2     1     6    1
     3     2     3    1
     4     3     4    1
     5     3    29    1
     6     3    33    1
     7     4     5    1
     8     5     6    1
     9     5     7    1
    10     5    35    1
    11     7     8    1
    12     8     9   ar
    13     8    13   ar
    14     9    10   ar
    15     9    36    1
    16    10    11   ar
    17    10    26    1
    18    11    12   ar
    19    11    14    1
    20    12    13   ar
    21    12    17    1
    22    13    37    1
    23    14    15    1
    24    14    25    2
    25    15    16    1
    26    15    38    1
    27    15    39    1
    28    16    17    1
    29    16    18    1
    30    16    40    1
    31    18    19   ar
    32    18    23   ar
    33    19    20   ar
    34    19    41    1
    35    20    21   ar
    36    20    42    1
    37    21    22   ar
    38    21    24    1
    39    22    23   ar
    40    22    43    1
    41    23    44    1
    42    24    45    1
    43    26    46    1
    44    27    47    1
    45    28    48    1
    46    29    49    1
    47    30    50    1
    48     1    31    1
    49     1    27    1
    50     2    32    1
    51     2    28    1
    52     4    34    1
    53     4    30    1
