@<TRIPOS>MOLECULE
*****
 50 53 0 0 0
SMALL
GASTEIGER

@<TRIPOS>ATOM
     1 C         0.361097   0.313197   2.131272 C.3        1 UNL1     0.1889
     2 C         0.36001   -0.577993   0.860162 C.3        1 UNL1     0.1342
     3 C         -0.468877   -1.865966   0.980734 C.3        1 UNL1     0.1174
     4 C         -0.429317   -2.46768   2.387678 C.3        1 UNL1     0.1456
     5 C         -0.657298   -1.414021   3.486856 C.3        1 UNL1     0.2326
     6 O         0.312104   -0.374763   3.372524 O.3        1 UNL1     -0.3076
     7 O         -2.009311   -0.923456   3.539077 O.3        1 UNL1     -0.4605
     8 C         -2.626429   -0.715842   2.31859 C.ar        1 UNL1     0.1310
     9 C         -2.667729   0.500093   1.627867 C.ar        1 UNL1     0.0226
     10 C         -3.304874   0.605583   0.385764 C.ar        1 UNL1     0.1343
     11 C         -3.896156   -0.509044   -0.207391 C.ar        1 UNL1     0.1007
     12 C         -3.897066   -1.719136   0.491508 C.ar        1 UNL1     0.1389
     13 C         -3.258654   -1.824321   1.741627 C.ar        1 UNL1     0.0229
     14 C         -4.509464   -0.473724   -1.555263 C.2        1 UNL1     0.1740
     15 C         -4.895365   -1.805819   -2.128109 C.3        1 UNL1     0.0520
     16 C         -5.496806   -2.6529   -1.015149 C.3        1 UNL1     0.1322
     17 O         -4.542401   -2.851311   0.051065 O.3        1 UNL1     -0.4828
     18 C         -6.8747   -2.173624   -0.552086 C.ar        1 UNL1     -0.0067
     19 C         -6.972464   -1.331953   0.574966 C.ar        1 UNL1     -0.0516
     20 C         -8.22005   -0.913963   1.053271 C.ar        1 UNL1     -0.0198
     21 C         -9.374982   -1.335752   0.419193 C.ar        1 UNL1     0.1169
     22 C         -9.309772   -2.137545   -0.712935 C.ar        1 UNL1     -0.0198
     23 C         -8.061595   -2.540641   -1.20245 C.ar        1 UNL1     -0.0516
     24 O         -10.573275   -0.939189   0.936138 O.3        1 UNL1     -0.5068
     25 O         -4.631759   0.554556   -2.215695 O.2        1 UNL1     -0.2917
     26 O         -3.310655   1.820307   -0.235522 O.3        1 UNL1     -0.5058
     27 O         -0.583197   1.370822   2.081024 O.3        1 UNL1     -0.3648
     28 O         1.716475   -0.966702   0.574481 O.3        1 UNL1     -0.3841
     29 O         -1.800247   -1.65855   0.504746 O.3        1 UNL1     -0.3863
     30 O         0.856391   -3.089951   2.600808 O.3        1 UNL1     -0.3829
     31 H         1.332111   0.819684   2.157388 H        1 UNL1     0.0937
     32 H         0.0   0.0   0.0 H        1 UNL1     0.0671
     33 H         -0.029835   -2.611923   0.303601 H        1 UNL1     0.0649
     34 H         -1.185627   -3.255108   2.479067 H        1 UNL1     0.0683
     35 H         -0.439882   -1.951952   4.418113 H        1 UNL1     0.1085
     36 H         -2.178533   1.389571   2.009489 H        1 UNL1     0.0691
     37 H         -3.274403   -2.777381   2.265957 H        1 UNL1     0.0691
     38 H         -3.987951   -2.268758   -2.530372 H        1 UNL1     0.0385
     39 H         -5.596187   -1.651261   -2.955598 H        1 UNL1     0.0385
     40 H         -5.661826   -3.657943   -1.426459 H        1 UNL1     0.0789
     41 H         -6.081097   -0.994495   1.09577 H        1 UNL1     0.0623
     42 H         -8.282776   -0.274622   1.93038 H        1 UNL1     0.0654
     43 H         -10.20738   -2.461344   -1.226126 H        1 UNL1     0.0654
     44 H         -8.047567   -3.158245   -2.095317 H        1 UNL1     0.0623
     45 H         -10.587692   0.031131   0.967568 H        1 UNL1     0.2921
     46 H         -2.67672   1.811047   -0.969997 H        1 UNL1     0.2922
     47 H         -0.507771   1.847459   1.24258 H        1 UNL1     0.2126
     48 H         2.292161   -0.283428   0.968758 H        1 UNL1     0.2101
     49 H         -1.837381   -1.818262   -0.451761 H        1 UNL1     0.2100
     50 H         1.546535   -2.405372   2.479302 H        1 UNL1     0.2102
@<TRIPOS>BOND
     1     1     2    1
     2     1     6    1
     3     2     3    1
     4     3     4    1
     5     3    29    1
     6     3    33    1
     7     4     5    1
     8     5     6    1
     9     5     7    1
    10     5    35    1
    11     7     8    1
    12     8     9   ar
    13     8    13   ar
    14     9    10   ar
    15     9    36    1
    16    10    11   ar
    17    10    26    1
    18    11    12   ar
    19    11    14    1
    20    12    13   ar
    21    12    17    1
    22    13    37    1
    23    14    15    1
    24    14    25    2
    25    15    16    1
    26    15    38    1
    27    15    39    1
    28    16    17    1
    29    16    18    1
    30    16    40    1
    31    18    19   ar
    32    18    23   ar
    33    19    20   ar
    34    19    41    1
    35    20    21   ar
    36    20    42    1
    37    21    22   ar
    38    21    24    1
    39    22    23   ar
    40    22    43    1
    41    23    44    1
    42    24    45    1
    43    26    46    1
    44    27    47    1
    45    28    48    1
    46    29    49    1
    47    30    50    1
    48     1    31    1
    49     1    27    1
    50     2    32    1
    51     2    28    1
    52     4    34    1
    53     4    30    1
