@<TRIPOS>MOLECULE
*****
 50 53 0 0 0
SMALL
GASTEIGER

@<TRIPOS>ATOM
     1 C         0.322902   -1.872752   1.076726 C.3        1 UNL1     0.1889
     2 C         -0.516293   -0.607284   0.753796 C.3        1 UNL1     0.1342
     3 C         -0.842029   0.27362   1.969678 C.3        1 UNL1     0.1174
     4 C         -1.066105   -0.53831   3.247831 C.3        1 UNL1     0.1456
     5 C         0.017298   -1.610762   3.463352 C.3        1 UNL1     0.2326
     6 O         0.071277   -2.480766   2.335057 O.3        1 UNL1     -0.3076
     7 O         1.300764   -1.06554   3.819398 O.3        1 UNL1     -0.4605
     8 C         2.403832   -1.749647   3.341104 C.ar        1 UNL1     0.1310
     9 C         3.693214   -1.686185   3.880334 C.ar        1 UNL1     0.0226
     10 C         4.743946   -2.432345   3.333426 C.ar        1 UNL1     0.1343
     11 C         4.525261   -3.27918   2.24766 C.ar        1 UNL1     0.1007
     12 C         3.251239   -3.319725   1.674941 C.ar        1 UNL1     0.1389
     13 C         2.195508   -2.567353   2.223393 C.ar        1 UNL1     0.0229
     14 C         5.579457   -4.153208   1.682947 C.2        1 UNL1     0.1740
     15 C         5.115952   -5.157501   0.66899 C.3        1 UNL1     0.0520
     16 C         4.083861   -4.492247   -0.231111 C.3        1 UNL1     0.1322
     17 O         2.950384   -4.035052   0.539132 O.3        1 UNL1     -0.4828
     18 C         4.674826   -3.441945   -1.174694 C.ar        1 UNL1     -0.0067
     19 C         4.99487   -2.163157   -0.674206 C.ar        1 UNL1     -0.0516
     20 C         5.49246   -1.164634   -1.519971 C.ar        1 UNL1     -0.0198
     21 C         5.667161   -1.429514   -2.866502 C.ar        1 UNL1     0.1169
     22 C         5.392608   -2.689297   -3.382648 C.ar        1 UNL1     -0.0198
     23 C         4.912446   -3.69359   -2.533593 C.ar        1 UNL1     -0.0516
     24 O         6.117938   -0.420985   -3.666547 O.3        1 UNL1     -0.5068
     25 O         6.748099   -4.133295   2.060258 O.2        1 UNL1     -0.2917
     26 O         5.977963   -2.324799   3.905457 O.3        1 UNL1     -0.5058
     27 O         1.71238   -1.703962   0.845105 O.3        1 UNL1     -0.3648
     28 O         -1.768703   -1.02484   0.179495 O.3        1 UNL1     -0.3841
     29 O         0.140097   1.299142   2.130504 O.3        1 UNL1     -0.3863
     30 O         -2.354186   -1.18755   3.176939 O.3        1 UNL1     -0.3829
     31 H         0.02077   -2.640711   0.356285 H        1 UNL1     0.0937
     32 H         0.0   0.0   0.0 H        1 UNL1     0.0671
     33 H         -1.782876   0.801095   1.759206 H        1 UNL1     0.0649
     34 H         -1.091272   0.129873   4.115759 H        1 UNL1     0.0683
     35 H         -0.361197   -2.203635   4.305446 H        1 UNL1     0.1085
     36 H         3.915312   -1.089851   4.758502 H        1 UNL1     0.0691
     37 H         1.213233   -2.615565   1.758308 H        1 UNL1     0.0691
     38 H         4.679369   -6.001174   1.214093 H        1 UNL1     0.0385
     39 H         5.980901   -5.524718   0.106146 H        1 UNL1     0.0385
     40 H         3.673914   -5.273199   -0.88577 H        1 UNL1     0.0789
     41 H         4.858086   -1.927435   0.377163 H        1 UNL1     0.0623
     42 H         5.724295   -0.178879   -1.124307 H        1 UNL1     0.0654
     43 H         5.54001   -2.91202   -4.432684 H        1 UNL1     0.0654
     44 H         4.718468   -4.669237   -2.968713 H        1 UNL1     0.0623
     45 H         6.82072   0.054253   -3.194357 H        1 UNL1     0.2921
     46 H         6.034937   -2.923598   4.666776 H        1 UNL1     0.2922
     47 H         1.861791   -1.32201   -0.031051 H        1 UNL1     0.2126
     48 H         -1.614228   -1.902216   -0.220606 H        1 UNL1     0.2101
     49 H         0.419775   1.627495   1.26116 H        1 UNL1     0.2100
     50 H         -3.041791   -0.513904   3.358908 H        1 UNL1     0.2102
@<TRIPOS>BOND
     1     1     2    1
     2     1     6    1
     3     2     3    1
     4     3     4    1
     5     3    29    1
     6     3    33    1
     7     4     5    1
     8     5     6    1
     9     5     7    1
    10     5    35    1
    11     7     8    1
    12     8     9   ar
    13     8    13   ar
    14     9    10   ar
    15     9    36    1
    16    10    11   ar
    17    10    26    1
    18    11    12   ar
    19    11    14    1
    20    12    13   ar
    21    12    17    1
    22    13    37    1
    23    14    15    1
    24    14    25    2
    25    15    16    1
    26    15    38    1
    27    15    39    1
    28    16    17    1
    29    16    18    1
    30    16    40    1
    31    18    19   ar
    32    18    23   ar
    33    19    20   ar
    34    19    41    1
    35    20    21   ar
    36    20    42    1
    37    21    22   ar
    38    21    24    1
    39    22    23   ar
    40    22    43    1
    41    23    44    1
    42    24    45    1
    43    26    46    1
    44    27    47    1
    45    28    48    1
    46    29    49    1
    47    30    50    1
    48     1    31    1
    49     1    27    1
    50     2    32    1
    51     2    28    1
    52     4    34    1
    53     4    30    1
