@<TRIPOS>MOLECULE
*****
 50 53 0 0 0
SMALL
GASTEIGER

@<TRIPOS>ATOM
     1 C         -0.088217   -1.035829   1.920958 C.3        1 UNL1     0.1889
     2 C         -0.561902   -0.82349   0.457922 C.3        1 UNL1     0.1342
     3 C         -2.065958   -0.550311   0.304122 C.3        1 UNL1     0.1174
     4 C         -2.915035   -1.312924   1.324223 C.3        1 UNL1     0.1456
     5 C         -2.35395   -1.209514   2.754207 C.3        1 UNL1     0.2326
     6 O         -1.009991   -1.684615   2.784558 O.3        1 UNL1     -0.3076
     7 O         -2.505153   0.098089   3.336129 O.3        1 UNL1     -0.4605
     8 C         -2.675628   0.134903   4.708394 C.ar        1 UNL1     0.1310
     9 C         -3.540054   -0.686654   5.439908 C.ar        1 UNL1     0.0226
     10 C         -3.629534   -0.584322   6.833258 C.ar        1 UNL1     0.1343
     11 C         -2.838437   0.326657   7.531916 C.ar        1 UNL1     0.1007
     12 C         -2.001558   1.180694   6.808702 C.ar        1 UNL1     0.1389
     13 C         -1.913715   1.079415   5.407468 C.ar        1 UNL1     0.0229
     14 C         -2.831207   0.419058   9.010281 C.2        1 UNL1     0.1740
     15 C         -1.763018   1.291696   9.601064 C.3        1 UNL1     0.0520
     16 C         -1.626368   2.537805   8.737064 C.3        1 UNL1     0.1322
     17 O         -1.260308   2.186337   7.384459 O.3        1 UNL1     -0.4828
     18 C         -2.815805   3.495169   8.843932 C.ar        1 UNL1     -0.0067
     19 C         -3.411091   3.994148   7.667128 C.ar        1 UNL1     -0.0516
     20 C         -4.469742   4.908112   7.729497 C.ar        1 UNL1     -0.0198
     21 C         -4.93629   5.335537   8.959728 C.ar        1 UNL1     0.1169
     22 C         -4.392732   4.836669   10.136382 C.ar        1 UNL1     -0.0198
     23 C         -3.346322   3.90864   10.074374 C.ar        1 UNL1     -0.0516
     24 O         -5.943478   6.255063   8.980837 O.3        1 UNL1     -0.5068
     25 O         -3.585865   -0.227731   9.731835 O.2        1 UNL1     -0.2917
     26 O         -4.492925   -1.414076   7.487207 O.3        1 UNL1     -0.5058
     27 O         0.452651   0.133307   2.515406 O.3        1 UNL1     -0.3648
     28 O         -0.263423   -2.013497   -0.295404 O.3        1 UNL1     -0.3841
     29 O         -2.328861   0.854329   0.304915 O.3        1 UNL1     -0.3863
     30 O         -2.970893   -2.705918   0.947212 O.3        1 UNL1     -0.3829
     31 H         0.756424   -1.732138   1.878362 H        1 UNL1     0.0937
     32 H         0.0   0.0   0.0 H        1 UNL1     0.0671
     33 H         -2.370951   -0.903667   -0.690784 H        1 UNL1     0.0649
     34 H         -3.943638   -0.935823   1.311169 H        1 UNL1     0.0683
     35 H         -2.95783   -1.923946   3.327613 H        1 UNL1     0.1085
     36 H         -4.139988   -1.452773   4.961094 H        1 UNL1     0.0691
     37 H         -1.25542   1.756702   4.867632 H        1 UNL1     0.0691
     38 H         -0.832262   0.714545   9.611835 H        1 UNL1     0.0385
     39 H         -2.028107   1.532596   10.636184 H        1 UNL1     0.0385
     40 H         -0.76403   3.102185   9.117024 H        1 UNL1     0.0789
     41 H         -3.057003   3.681168   6.689214 H        1 UNL1     0.0623
     42 H         -4.912531   5.294675   6.814883 H        1 UNL1     0.0654
     43 H         -4.760495   5.153183   11.105134 H        1 UNL1     0.0654
     44 H         -2.952534   3.53182   11.013407 H        1 UNL1     0.0623
     45 H         -5.635616   7.057566   8.529255 H        1 UNL1     0.2921
     46 H         -4.00778   -1.925284   8.154075 H        1 UNL1     0.2922
     47 H         1.178968   0.47737   1.976941 H        1 UNL1     0.2126
     48 H         0.706278   -2.126013   -0.267973 H        1 UNL1     0.2101
     49 H         -1.984218   1.255038   -0.508994 H        1 UNL1     0.2100
     50 H         -3.456235   -2.769371   0.098607 H        1 UNL1     0.2102
@<TRIPOS>BOND
     1     1     2    1
     2     1     6    1
     3     2     3    1
     4     3     4    1
     5     3    29    1
     6     3    33    1
     7     4     5    1
     8     5     6    1
     9     5     7    1
    10     5    35    1
    11     7     8    1
    12     8     9   ar
    13     8    13   ar
    14     9    10   ar
    15     9    36    1
    16    10    11   ar
    17    10    26    1
    18    11    12   ar
    19    11    14    1
    20    12    13   ar
    21    12    17    1
    22    13    37    1
    23    14    15    1
    24    14    25    2
    25    15    16    1
    26    15    38    1
    27    15    39    1
    28    16    17    1
    29    16    18    1
    30    16    40    1
    31    18    19   ar
    32    18    23   ar
    33    19    20   ar
    34    19    41    1
    35    20    21   ar
    36    20    42    1
    37    21    22   ar
    38    21    24    1
    39    22    23   ar
    40    22    43    1
    41    23    44    1
    42    24    45    1
    43    26    46    1
    44    27    47    1
    45    28    48    1
    46    29    49    1
    47    30    50    1
    48     1    31    1
    49     1    27    1
    50     2    32    1
    51     2    28    1
    52     4    34    1
    53     4    30    1
