@<TRIPOS>MOLECULE
*****
 50 53 0 0 0
SMALL
GASTEIGER

@<TRIPOS>ATOM
     1 C         0.69805   -1.440761   1.485846 C.3        1 UNL1     0.1889
     2 C         -0.427052   -0.774573   0.649019 C.3        1 UNL1     0.1342
     3 C         -1.565751   -0.161506   1.478462 C.3        1 UNL1     0.1174
     4 C         -1.870047   -0.958708   2.749285 C.3        1 UNL1     0.1456
     5 C         -0.596814   -1.336605   3.528025 C.3        1 UNL1     0.2326
     6 O         0.285832   -2.075956   2.687095 O.3        1 UNL1     -0.3076
     7 O         0.03827   -0.214501   4.167456 O.3        1 UNL1     -0.4605
     8 C         0.693678   -0.484798   5.355272 C.ar        1 UNL1     0.1310
     9 C         0.617994   0.290736   6.517219 C.ar        1 UNL1     0.0226
     10 C         1.30767   -0.076692   7.67879 C.ar        1 UNL1     0.1343
     11 C         2.071493   -1.242532   7.713878 C.ar        1 UNL1     0.1007
     12 C         2.187729   -2.003294   6.547466 C.ar        1 UNL1     0.1389
     13 C         1.496292   -1.632219   5.378857 C.ar        1 UNL1     0.0229
     14 C         2.752807   -1.722351   8.938515 C.2        1 UNL1     0.1740
     15 C         3.340199   -3.100712   8.857011 C.3        1 UNL1     0.0520
     16 C         3.97987   -3.271534   7.486027 C.3        1 UNL1     0.1322
     17 O         2.998402   -3.109271   6.438429 O.3        1 UNL1     -0.4828
     18 C         5.25496   -2.446927   7.293951 C.ar        1 UNL1     -0.0067
     19 C         6.497978   -3.105743   7.198665 C.ar        1 UNL1     -0.0516
     20 C         7.687919   -2.379441   7.070263 C.ar        1 UNL1     -0.0198
     21 C         7.64897   -0.996839   7.043386 C.ar        1 UNL1     0.1169
     22 C         6.437344   -0.320504   7.101478 C.ar        1 UNL1     -0.0198
     23 C         5.245693   -1.047113   7.211311 C.ar        1 UNL1     -0.0516
     24 O         8.831216   -0.322325   6.955488 O.3        1 UNL1     -0.5068
     25 O         2.77975   -1.087987   9.989867 O.2        1 UNL1     -0.2917
     26 O         1.192924   0.723544   8.777898 O.3        1 UNL1     -0.5058
     27 O         1.819795   -0.598254   1.697166 O.3        1 UNL1     -0.3648
     28 O         -1.010885   -1.77366   -0.207527 O.3        1 UNL1     -0.3841
     29 O         -1.315657   1.221127   1.739064 O.3        1 UNL1     -0.3863
     30 O         -2.572228   -2.169193   2.392415 O.3        1 UNL1     -0.3829
     31 H         1.090574   -2.265886   0.881551 H        1 UNL1     0.0937
     32 H         0.0   0.0   0.0 H        1 UNL1     0.0671
     33 H         -2.47686   -0.182506   0.864329 H        1 UNL1     0.0649
     34 H         -2.535474   -0.382647   3.401788 H        1 UNL1     0.0683
     35 H         -0.954938   -2.028154   4.300932 H        1 UNL1     0.1085
     36 H         -0.003357   1.177942   6.571149 H        1 UNL1     0.0691
     37 H         1.604245   -2.240847   4.483641 H        1 UNL1     0.0691
     38 H         2.525185   -3.817292   9.004627 H        1 UNL1     0.0385
     39 H         4.062354   -3.231785   9.670086 H        1 UNL1     0.0385
     40 H         4.296964   -4.320072   7.405149 H        1 UNL1     0.0789
     41 H         6.556079   -4.189947   7.226514 H        1 UNL1     0.0623
     42 H         8.641202   -2.898662   7.009659 H        1 UNL1     0.0654
     43 H         6.39416   0.761529   7.06613 H        1 UNL1     0.0654
     44 H         4.316444   -0.486489   7.243622 H        1 UNL1     0.0623
     45 H         8.960774   -0.049481   6.032727 H        1 UNL1     0.2921
     46 H         1.15092   0.173153   9.575844 H        1 UNL1     0.2922
     47 H         2.584515   -0.929387   1.205828 H        1 UNL1     0.2126
     48 H         -0.355479   -1.959868   -0.907171 H        1 UNL1     0.2101
     49 H         -0.827657   1.31687   2.572421 H        1 UNL1     0.2100
     50 H         -3.454836   -1.916207   2.050781 H        1 UNL1     0.2102
@<TRIPOS>BOND
     1     1     2    1
     2     1     6    1
     3     2     3    1
     4     3     4    1
     5     3    29    1
     6     3    33    1
     7     4     5    1
     8     5     6    1
     9     5     7    1
    10     5    35    1
    11     7     8    1
    12     8     9   ar
    13     8    13   ar
    14     9    10   ar
    15     9    36    1
    16    10    11   ar
    17    10    26    1
    18    11    12   ar
    19    11    14    1
    20    12    13   ar
    21    12    17    1
    22    13    37    1
    23    14    15    1
    24    14    25    2
    25    15    16    1
    26    15    38    1
    27    15    39    1
    28    16    17    1
    29    16    18    1
    30    16    40    1
    31    18    19   ar
    32    18    23   ar
    33    19    20   ar
    34    19    41    1
    35    20    21   ar
    36    20    42    1
    37    21    22   ar
    38    21    24    1
    39    22    23   ar
    40    22    43    1
    41    23    44    1
    42    24    45    1
    43    26    46    1
    44    27    47    1
    45    28    48    1
    46    29    49    1
    47    30    50    1
    48     1    31    1
    49     1    27    1
    50     2    32    1
    51     2    28    1
    52     4    34    1
    53     4    30    1
