@<TRIPOS>MOLECULE
*****
 50 53 0 0 0
SMALL
GASTEIGER

@<TRIPOS>ATOM
     1 C         -0.417195   -1.391447   1.631144 C.3        1 UNL1     0.1889
     2 C         -0.505699   -0.963212   0.141606 C.3        1 UNL1     0.1342
     3 C         -1.934893   -0.865232   -0.413615 C.3        1 UNL1     0.1174
     4 C         -2.875879   -1.916086   0.180833 C.3        1 UNL1     0.1456
     5 C         -2.753229   -2.019473   1.712052 C.3        1 UNL1     0.2326
     6 O         -1.405036   -2.310807   2.073118 O.3        1 UNL1     -0.3076
     7 O         -3.292157   -0.881085   2.408435 O.3        1 UNL1     -0.4605
     8 C         -3.843641   -1.135983   3.651182 C.ar        1 UNL1     0.1310
     9 C         -4.71441   -2.189231   3.950732 C.ar        1 UNL1     0.0226
     10 C         -5.207312   -2.374134   5.247944 C.ar        1 UNL1     0.1343
     11 C         -4.822184   -1.523471   6.283265 C.ar        1 UNL1     0.1007
     12 C         -3.985595   -0.44382   5.987869 C.ar        1 UNL1     0.1389
     13 C         -3.492221   -0.25656   4.682899 C.ar        1 UNL1     0.0229
     14 C         -5.245907   -1.722222   7.688651 C.2        1 UNL1     0.1740
     15 C         -4.562404   -0.852022   8.702122 C.3        1 UNL1     0.0520
     16 C         -4.41763   0.546173   8.117272 C.3        1 UNL1     0.1322
     17 O         -3.630222   0.516519   6.906414 O.3        1 UNL1     -0.4828
     18 C         -5.74244   1.302762   7.994084 C.ar        1 UNL1     -0.0067
     19 C         -5.983197   2.417273   8.823611 C.ar        1 UNL1     -0.0516
     20 C         -7.202772   3.102626   8.769844 C.ar        1 UNL1     -0.0198
     21 C         -8.190165   2.679801   7.898006 C.ar        1 UNL1     0.1169
     22 C         -7.97033   1.606239   7.044791 C.ar        1 UNL1     -0.0198
     23 C         -6.743976   0.932093   7.08528 C.ar        1 UNL1     -0.0516
     24 O         -9.378929   3.348557   7.900428 O.3        1 UNL1     -0.5068
     25 O         -6.042085   -2.589484   8.038571 O.2        1 UNL1     -0.2917
     26 O         -6.05391   -3.420028   5.473695 O.3        1 UNL1     -0.5058
     27 O         -0.280343   -0.299249   2.526221 O.3        1 UNL1     -0.3648
     28 O         0.197613   -1.934674   -0.654836 O.3        1 UNL1     -0.3841
     29 O         -2.43904   0.465631   -0.284107 O.3        1 UNL1     -0.3863
     30 O         -2.572796   -3.204445   -0.397062 O.3        1 UNL1     -0.3829
     31 H         0.519214   -1.949218   1.741175 H        1 UNL1     0.0937
     32 H         0.0   0.0   0.0 H        1 UNL1     0.0671
     33 H         -1.888358   -1.055666   -1.494951 H        1 UNL1     0.0649
     34 H         -3.912941   -1.681982   -0.083927 H        1 UNL1     0.0683
     35 H         -3.349829   -2.904591   1.966044 H        1 UNL1     0.1085
     36 H         -5.007109   -2.917503   3.202355 H        1 UNL1     0.0691
     37 H         -2.843281   0.592354   4.478657 H        1 UNL1     0.0691
     38 H         -3.583317   -1.295342   8.912794 H        1 UNL1     0.0385
     39 H         -5.145714   -0.85468   9.629226 H        1 UNL1     0.0385
     40 H         -3.813308   1.131476   8.823483 H        1 UNL1     0.0789
     41 H         -5.227648   2.763299   9.522941 H        1 UNL1     0.0623
     42 H         -7.380819   3.953281   9.423065 H        1 UNL1     0.0654
     43 H         -8.731107   1.276079   6.347566 H        1 UNL1     0.0654
     44 H         -6.60263   0.10429   6.397088 H        1 UNL1     0.0623
     45 H         -9.384598   3.966704   7.15171 H        1 UNL1     0.2921
     46 H         -5.85976   -3.812313   6.339623 H        1 UNL1     0.2922
     47 H         0.478773   0.24568   2.27591 H        1 UNL1     0.2126
     48 H         1.149776   -1.798256   -0.485991 H        1 UNL1     0.2101
     49 H         -2.998106   0.531278   0.506418 H        1 UNL1     0.2100
     50 H         -2.815667   -3.174068   -1.345642 H        1 UNL1     0.2102
@<TRIPOS>BOND
     1     1     2    1
     2     1     6    1
     3     2     3    1
     4     3     4    1
     5     3    29    1
     6     3    33    1
     7     4     5    1
     8     5     6    1
     9     5     7    1
    10     5    35    1
    11     7     8    1
    12     8     9   ar
    13     8    13   ar
    14     9    10   ar
    15     9    36    1
    16    10    11   ar
    17    10    26    1
    18    11    12   ar
    19    11    14    1
    20    12    13   ar
    21    12    17    1
    22    13    37    1
    23    14    15    1
    24    14    25    2
    25    15    16    1
    26    15    38    1
    27    15    39    1
    28    16    17    1
    29    16    18    1
    30    16    40    1
    31    18    19   ar
    32    18    23   ar
    33    19    20   ar
    34    19    41    1
    35    20    21   ar
    36    20    42    1
    37    21    22   ar
    38    21    24    1
    39    22    23   ar
    40    22    43    1
    41    23    44    1
    42    24    45    1
    43    26    46    1
    44    27    47    1
    45    28    48    1
    46    29    49    1
    47    30    50    1
    48     1    31    1
    49     1    27    1
    50     2    32    1
    51     2    28    1
    52     4    34    1
    53     4    30    1
