@<TRIPOS>MOLECULE
*****
 50 53 0 0 0
SMALL
GASTEIGER

@<TRIPOS>ATOM
     1 C         -1.872765   0.501961   1.005778 C.3        1 UNL1     0.1889
     2 C         -0.735163   0.814301   -0.003304 C.3        1 UNL1     0.1342
     3 C         -0.008991   2.146003   0.241046 C.3        1 UNL1     0.1174
     4 C         -0.938333   3.239908   0.772847 C.3        1 UNL1     0.1456
     5 C         -1.839406   2.743453   1.918257 C.3        1 UNL1     0.2326
     6 O         -2.604189   1.621374   1.483617 O.3        1 UNL1     -0.3076
     7 O         -1.12637   2.50139   3.144758 O.3        1 UNL1     -0.4605
     8 C         -1.811091   2.790927   4.311314 C.ar        1 UNL1     0.1310
     9 C         -2.997593   3.527714   4.392922 C.ar        1 UNL1     0.0226
     10 C         -3.626178   3.753432   5.623302 C.ar        1 UNL1     0.1343
     11 C         -3.095685   3.227078   6.800319 C.ar        1 UNL1     0.1007
     12 C         -1.889407   2.524495   6.736644 C.ar        1 UNL1     0.1389
     13 C         -1.256163   2.299924   5.499712 C.ar        1 UNL1     0.0229
     14 C         -3.762619   3.363622   8.115883 C.2        1 UNL1     0.1740
     15 C         -3.172919   2.550099   9.230326 C.3        1 UNL1     0.0520
     16 C         -1.655839   2.59868   9.111732 C.3        1 UNL1     0.1322
     17 O         -1.222872   2.055738   7.844915 O.3        1 UNL1     -0.4828
     18 C         -1.054275   3.963388   9.455853 C.ar        1 UNL1     -0.0067
     19 C         -1.633815   4.736642   10.482705 C.ar        1 UNL1     -0.0516
     20 C         -1.13787   6.009074   10.790793 C.ar        1 UNL1     -0.0198
     21 C         -0.069924   6.521365   10.076037 C.ar        1 UNL1     0.1169
     22 C         0.543217   5.770255   9.081688 C.ar        1 UNL1     -0.0198
     23 C         0.059189   4.490318   8.785826 C.ar        1 UNL1     -0.0516
     24 O         0.361643   7.779322   10.378845 O.3        1 UNL1     -0.5068
     25 O         -4.780289   4.028245   8.292257 O.2        1 UNL1     -0.2917
     26 O         -4.780351   4.480992   5.634523 O.3        1 UNL1     -0.5058
     27 O         -1.470241   -0.3516   2.065115 O.3        1 UNL1     -0.3648
     28 O         -1.301454   0.871521   -1.325706 O.3        1 UNL1     -0.3841
     29 O         1.143894   1.951548   1.062738 O.3        1 UNL1     -0.3863
     30 O         -1.775602   3.714886   -0.303752 O.3        1 UNL1     -0.3829
     31 H         -2.623389   -0.080551   0.460506 H        1 UNL1     0.0937
     32 H         0.0   0.0   0.0 H        1 UNL1     0.0671
     33 H         0.377555   2.499379   -0.725095 H        1 UNL1     0.0649
     34 H         -0.348493   4.094921   1.121334 H        1 UNL1     0.0683
     35 H         -2.545167   3.568574   2.076232 H        1 UNL1     0.1085
     36 H         -3.489829   3.915795   3.507926 H        1 UNL1     0.0691
     37 H         -0.317283   1.750841   5.477222 H        1 UNL1     0.0691
     38 H         -3.544706   1.525314   9.124892 H        1 UNL1     0.0385
     39 H         -3.526157   2.945186   10.188923 H        1 UNL1     0.0385
     40 H         -1.250224   1.905114   9.860706 H        1 UNL1     0.0789
     41 H         -2.47879   4.360743   11.052239 H        1 UNL1     0.0623
     42 H         -1.600924   6.600461   11.57683 H        1 UNL1     0.0654
     43 H         1.389668   6.155708   8.525938 H        1 UNL1     0.0654
     44 H         0.569029   3.927163   8.010091 H        1 UNL1     0.0623
     45 H         -0.41446   8.354278   10.477875 H        1 UNL1     0.2921
     46 H         -5.443686   4.043989   5.077363 H        1 UNL1     0.2922
     47 H         -1.046141   -1.146202   1.712118 H        1 UNL1     0.2126
     48 H         -1.516652   -0.047104   -1.577797 H        1 UNL1     0.2101
     49 H         1.246212   2.70117   1.670514 H        1 UNL1     0.2100
     50 H         -1.202859   4.179291   -0.948737 H        1 UNL1     0.2102
@<TRIPOS>BOND
     1     1     2    1
     2     1     6    1
     3     2     3    1
     4     3     4    1
     5     3    29    1
     6     3    33    1
     7     4     5    1
     8     5     6    1
     9     5     7    1
    10     5    35    1
    11     7     8    1
    12     8     9   ar
    13     8    13   ar
    14     9    10   ar
    15     9    36    1
    16    10    11   ar
    17    10    26    1
    18    11    12   ar
    19    11    14    1
    20    12    13   ar
    21    12    17    1
    22    13    37    1
    23    14    15    1
    24    14    25    2
    25    15    16    1
    26    15    38    1
    27    15    39    1
    28    16    17    1
    29    16    18    1
    30    16    40    1
    31    18    19   ar
    32    18    23   ar
    33    19    20   ar
    34    19    41    1
    35    20    21   ar
    36    20    42    1
    37    21    22   ar
    38    21    24    1
    39    22    23   ar
    40    22    43    1
    41    23    44    1
    42    24    45    1
    43    26    46    1
    44    27    47    1
    45    28    48    1
    46    29    49    1
    47    30    50    1
    48     1    31    1
    49     1    27    1
    50     2    32    1
    51     2    28    1
    52     4    34    1
    53     4    30    1
