@<TRIPOS>MOLECULE
*****
 50 53 0 0 0
SMALL
GASTEIGER

@<TRIPOS>ATOM
     1 C         -0.36438   -1.395013   1.640723 C.3        1 UNL1     0.1889
     2 C         -0.484516   -0.972509   0.151764 C.3        1 UNL1     0.1342
     3 C         -1.92386   -0.903862   -0.381192 C.3        1 UNL1     0.1174
     4 C         -2.834733   -1.971287   0.23039 C.3        1 UNL1     0.1456
     5 C         -2.686154   -2.068231   1.759732 C.3        1 UNL1     0.2326
     6 O         -1.327046   -2.332284   2.100279 O.3        1 UNL1     -0.3076
     7 O         -3.236252   -0.938733   2.461834 O.3        1 UNL1     -0.4605
     8 C         -3.763147   -1.201057   3.71367 C.ar        1 UNL1     0.1310
     9 C         -4.602812   -2.274221   4.030818 C.ar        1 UNL1     0.0226
     10 C         -5.072119   -2.464833   5.335931 C.ar        1 UNL1     0.1343
     11 C         -4.693515   -1.599585   6.361526 C.ar        1 UNL1     0.1007
     12 C         -3.88862   -0.500861   6.048906 C.ar        1 UNL1     0.1389
     13 C         -3.419012   -0.30792   4.736018 C.ar        1 UNL1     0.0229
     14 C         -5.091761   -1.801765   7.773857 C.2        1 UNL1     0.1740
     15 C         -4.415715   -0.909635   8.773164 C.3        1 UNL1     0.0520
     16 C         -4.314515   0.488769   8.179714 C.3        1 UNL1     0.1322
     17 O         -3.544197   0.472694   6.957658 O.3        1 UNL1     -0.4828
     18 C         -5.659522   1.211364   8.072305 C.ar        1 UNL1     -0.0067
     19 C         -5.759719   2.374182   7.281086 C.ar        1 UNL1     -0.0516
     20 C         -6.96259   3.085754   7.19906 C.ar        1 UNL1     -0.0198
     21 C         -8.067898   2.649923   7.907702 C.ar        1 UNL1     0.1169
     22 C         -8.009714   1.489709   8.668856 C.ar        1 UNL1     -0.0198
     23 C         -6.812146   0.767678   8.73638 C.ar        1 UNL1     -0.0516
     24 O         -9.2114   3.389716   7.833477 O.3        1 UNL1     -0.5068
     25 O         -5.860801   -2.686883   8.139409 O.2        1 UNL1     -0.2917
     26 O         -5.888873   -3.530414   5.578903 O.3        1 UNL1     -0.5058
     27 O         -0.2349   -0.298002   2.530998 O.3        1 UNL1     -0.3648
     28 O         0.225089   -1.932173   -0.653351 O.3        1 UNL1     -0.3841
     29 O         -2.451813   0.417259   -0.246889 O.3        1 UNL1     -0.3863
     30 O         -2.515626   -3.255012   -0.349189 O.3        1 UNL1     -0.3829
     31 H         0.584349   -1.934138   1.737347 H        1 UNL1     0.0937
     32 H         0.0   0.0   0.0 H        1 UNL1     0.0671
     33 H         -1.890534   -1.0962   -1.46268 H        1 UNL1     0.0649
     34 H         -3.880183   -1.758136   -0.018612 H        1 UNL1     0.0683
     35 H         -3.26131   -2.964137   2.025113 H        1 UNL1     0.1085
     36 H         -4.887946   -3.013357   3.290211 H        1 UNL1     0.0691
     37 H         -2.794583   0.555912   4.518359 H        1 UNL1     0.0691
     38 H         -3.422876   -1.327265   8.971617 H        1 UNL1     0.0385
     39 H         -4.985311   -0.922193   9.708675 H        1 UNL1     0.0385
     40 H         -3.714913   1.092561   8.874288 H        1 UNL1     0.0789
     41 H         -4.903911   2.741976   6.722542 H        1 UNL1     0.0623
     42 H         -7.023887   3.987613   6.594986 H        1 UNL1     0.0654
     43 H         -8.87353   1.131122   9.2158 H        1 UNL1     0.0654
     44 H         -6.805521   -0.140004   9.332127 H        1 UNL1     0.0623
     45 H         -9.044251   4.254519   8.242004 H        1 UNL1     0.2921
     46 H         -5.513843   -4.069195   6.293382 H        1 UNL1     0.2922
     47 H         0.508145   0.262085   2.266335 H        1 UNL1     0.2126
     48 H         1.171496   -1.838016   -0.431582 H        1 UNL1     0.2101
     49 H         -2.005109   1.015742   -0.866621 H        1 UNL1     0.2100
     50 H         -2.77385   -3.231872   -1.293909 H        1 UNL1     0.2102
@<TRIPOS>BOND
     1     1     2    1
     2     1     6    1
     3     2     3    1
     4     3     4    1
     5     3    29    1
     6     3    33    1
     7     4     5    1
     8     5     6    1
     9     5     7    1
    10     5    35    1
    11     7     8    1
    12     8     9   ar
    13     8    13   ar
    14     9    10   ar
    15     9    36    1
    16    10    11   ar
    17    10    26    1
    18    11    12   ar
    19    11    14    1
    20    12    13   ar
    21    12    17    1
    22    13    37    1
    23    14    15    1
    24    14    25    2
    25    15    16    1
    26    15    38    1
    27    15    39    1
    28    16    17    1
    29    16    18    1
    30    16    40    1
    31    18    19   ar
    32    18    23   ar
    33    19    20   ar
    34    19    41    1
    35    20    21   ar
    36    20    42    1
    37    21    22   ar
    38    21    24    1
    39    22    23   ar
    40    22    43    1
    41    23    44    1
    42    24    45    1
    43    26    46    1
    44    27    47    1
    45    28    48    1
    46    29    49    1
    47    30    50    1
    48     1    31    1
    49     1    27    1
    50     2    32    1
    51     2    28    1
    52     4    34    1
    53     4    30    1
