@<TRIPOS>MOLECULE
*****
 50 53 0 0 0
SMALL
GASTEIGER

@<TRIPOS>ATOM
     1 C         -0.327534   -1.329198   1.701987 C.3        1 UNL1     0.1889
     2 C         -0.460927   -0.976021   0.196194 C.3        1 UNL1     0.1342
     3 C         -1.902654   -0.965115   -0.334624 C.3        1 UNL1     0.1174
     4 C         -2.786557   -2.02565   0.326511 C.3        1 UNL1     0.1456
     5 C         -2.63238   -2.051216   1.858157 C.3        1 UNL1     0.2326
     6 O         -1.26664   -2.267702   2.205657 O.3        1 UNL1     -0.3076
     7 O         -3.207643   -0.905056   2.511387 O.3        1 UNL1     -0.4605
     8 C         -3.714808   -1.121441   3.780044 C.ar        1 UNL1     0.1310
     9 C         -4.529041   -2.195594   4.154904 C.ar        1 UNL1     0.0226
     10 C         -4.979465   -2.336844   5.472883 C.ar        1 UNL1     0.1343
     11 C         -4.606633   -1.419381   6.45426 C.ar        1 UNL1     0.1007
     12 C         -3.827621   -0.320177   6.083214 C.ar        1 UNL1     0.1389
     13 C         -3.377032   -0.176943   4.757362 C.ar        1 UNL1     0.0229
     14 C         -4.984556   -1.566003   7.878981 C.2        1 UNL1     0.1740
     15 C         -4.315201   -0.617042   8.829238 C.3        1 UNL1     0.0520
     16 C         -4.248935   0.755157   8.173011 C.3        1 UNL1     0.1322
     17 O         -3.492475   0.699572   6.943479 O.3        1 UNL1     -0.4828
     18 C         -5.609341   1.445759   8.050166 C.ar        1 UNL1     -0.0067
     19 C         -5.991404   2.008304   6.81494 C.ar        1 UNL1     -0.0516
     20 C         -7.207839   2.68821   6.680859 C.ar        1 UNL1     -0.0198
     21 C         -8.04576   2.818479   7.773903 C.ar        1 UNL1     0.1169
     22 C         -7.712494   2.246484   8.994801 C.ar        1 UNL1     -0.0198
     23 C         -6.504589   1.550616   9.124377 C.ar        1 UNL1     -0.0516
     24 O         -9.204696   3.519942   7.6151 O.3        1 UNL1     -0.5068
     25 O         -5.731411   -2.448788   8.292965 O.2        1 UNL1     -0.2917
     26 O         -5.771794   -3.406289   5.773027 O.3        1 UNL1     -0.5058
     27 O         -0.222229   -0.191075   2.542447 O.3        1 UNL1     -0.3648
     28 O         0.269536   -1.953351   -0.567976 O.3        1 UNL1     -0.3841
     29 O         -2.461572   0.3478   -0.25718 O.3        1 UNL1     -0.3863
     30 O         -2.438284   -3.325878   -0.196749 O.3        1 UNL1     -0.3829
     31 H         0.633953   -1.840921   1.819296 H        1 UNL1     0.0937
     32 H         0.0   0.0   0.0 H        1 UNL1     0.0671
     33 H         -1.867123   -1.204325   -1.406648 H        1 UNL1     0.0649
     34 H         -3.837319   -1.848527   0.071705 H        1 UNL1     0.0683
     35 H         -3.185495   -2.947841   2.164761 H        1 UNL1     0.1085
     36 H         -4.807705   -2.972528   3.451456 H        1 UNL1     0.0691
     37 H         -2.77263   0.68836   4.493841 H        1 UNL1     0.0691
     38 H         -3.311961   -1.005867   9.033812 H        1 UNL1     0.0385
     39 H         -4.873695   -0.59893   9.771329 H        1 UNL1     0.0385
     40 H         -3.653692   1.40101   8.832617 H        1 UNL1     0.0789
     41 H         -5.347087   1.927609   5.944311 H        1 UNL1     0.0623
     42 H         -7.485755   3.127896   5.72616 H        1 UNL1     0.0654
     43 H         -8.368239   2.329544   9.853294 H        1 UNL1     0.0654
     44 H         -6.281081   1.107374   10.089999 H        1 UNL1     0.0623
     45 H         -8.980386   4.427654   7.353449 H        1 UNL1     0.2921
     46 H         -5.365422   -3.919013   6.489537 H        1 UNL1     0.2922
     47 H         0.519715   0.36356   2.263596 H        1 UNL1     0.2126
     48 H         1.20272   -1.886946   -0.287814 H        1 UNL1     0.2101
     49 H         -2.024482   0.930877   -0.898091 H        1 UNL1     0.2100
     50 H         -2.673096   -3.340957   -1.147721 H        1 UNL1     0.2102
@<TRIPOS>BOND
     1     1     2    1
     2     1     6    1
     3     2     3    1
     4     3     4    1
     5     3    29    1
     6     3    33    1
     7     4     5    1
     8     5     6    1
     9     5     7    1
    10     5    35    1
    11     7     8    1
    12     8     9   ar
    13     8    13   ar
    14     9    10   ar
    15     9    36    1
    16    10    11   ar
    17    10    26    1
    18    11    12   ar
    19    11    14    1
    20    12    13   ar
    21    12    17    1
    22    13    37    1
    23    14    15    1
    24    14    25    2
    25    15    16    1
    26    15    38    1
    27    15    39    1
    28    16    17    1
    29    16    18    1
    30    16    40    1
    31    18    19   ar
    32    18    23   ar
    33    19    20   ar
    34    19    41    1
    35    20    21   ar
    36    20    42    1
    37    21    22   ar
    38    21    24    1
    39    22    23   ar
    40    22    43    1
    41    23    44    1
    42    24    45    1
    43    26    46    1
    44    27    47    1
    45    28    48    1
    46    29    49    1
    47    30    50    1
    48     1    31    1
    49     1    27    1
    50     2    32    1
    51     2    28    1
    52     4    34    1
    53     4    30    1
