@<TRIPOS>MOLECULE
*****
 50 53 0 0 0
SMALL
GASTEIGER

@<TRIPOS>ATOM
     1 C         -0.330976   -1.327505   1.702642 C.3        1 UNL1     0.1889
     2 C         -0.461997   -0.975479   0.196371 C.3        1 UNL1     0.1342
     3 C         -1.90298   -0.963837   -0.33645 C.3        1 UNL1     0.1174
     4 C         -2.788665   -2.023094   0.324347 C.3        1 UNL1     0.1456
     5 C         -2.636628   -2.047506   1.856226 C.3        1 UNL1     0.2326
     6 O         -1.271547   -2.264819   2.205796 O.3        1 UNL1     -0.3076
     7 O         -3.211854   -0.900329   2.507702 O.3        1 UNL1     -0.4605
     8 C         -3.721056   -1.115264   3.775789 C.ar        1 UNL1     0.1310
     9 C         -4.536762   -2.188416   4.150316 C.ar        1 UNL1     0.0226
     10 C         -4.98923   -2.328225   5.467748 C.ar        1 UNL1     0.1343
     11 C         -4.61704   -1.410301   6.448936 C.ar        1 UNL1     0.1007
     12 C         -3.836539   -0.312066   6.078152 C.ar        1 UNL1     0.1389
     13 C         -3.383892   -0.170278   4.752846 C.ar        1 UNL1     0.0229
     14 C         -4.997167   -1.55546   7.87322 C.2        1 UNL1     0.1740
     15 C         -4.328382   -0.606319   8.823697 C.3        1 UNL1     0.0520
     16 C         -4.259974   0.765299   8.166474 C.3        1 UNL1     0.1322
     17 O         -3.501768   0.70808   6.938093 O.3        1 UNL1     -0.4828
     18 C         -5.619602   1.456974   8.041093 C.ar        1 UNL1     -0.0067
     19 C         -5.999377   2.018863   6.804862 C.ar        1 UNL1     -0.0516
     20 C         -7.215027   2.69971   6.668464 C.ar        1 UNL1     -0.0198
     21 C         -8.05443   2.831574   7.760179 C.ar        1 UNL1     0.1169
     22 C         -7.72344   2.260266   8.982018 C.ar        1 UNL1     -0.0198
     23 C         -6.516326   1.563461   9.113912 C.ar        1 UNL1     -0.0516
     24 O         -9.212527   3.533909   7.599126 O.3        1 UNL1     -0.5068
     25 O         -5.745388   -2.43727   8.286817 O.2        1 UNL1     -0.2917
     26 O         -5.78292   -3.396747   5.767586 O.3        1 UNL1     -0.5058
     27 O         -0.225902   -0.188766   2.542296 O.3        1 UNL1     -0.3648
     28 O         0.268721   -1.954045   -0.56597 O.3        1 UNL1     -0.3841
     29 O         -2.460928   0.3496   -0.260876 O.3        1 UNL1     -0.3863
     30 O         -2.440735   -3.324045   -0.197344 O.3        1 UNL1     -0.3829
     31 H         0.629928   -1.839917   1.821709 H        1 UNL1     0.0937
     32 H         0.0   0.0   0.0 H        1 UNL1     0.0671
     33 H         -1.866163   -1.203973   -1.408223 H        1 UNL1     0.0649
     34 H         -3.838929   -1.845325   0.067939 H        1 UNL1     0.0683
     35 H         -3.190901   -2.943422   2.162812 H        1 UNL1     0.1085
     36 H         -4.81507   -2.965671   3.44708 H        1 UNL1     0.0691
     37 H         -2.778359   0.694292   4.489518 H        1 UNL1     0.0691
     38 H         -3.325777   -0.995845   9.030046 H        1 UNL1     0.0385
     39 H         -4.888234   -0.586973   9.764957 H        1 UNL1     0.0385
     40 H         -3.665137   1.411164   8.826434 H        1 UNL1     0.0789
     41 H         -5.35386   1.936917   5.93524 H        1 UNL1     0.0623
     42 H         -7.491171   3.138873   5.71301 H        1 UNL1     0.0654
     43 H         -8.380364   2.344576   9.839487 H        1 UNL1     0.0654
     44 H         -6.29461   1.120798   10.080212 H        1 UNL1     0.0623
     45 H         -8.987031   4.441408   7.337759 H        1 UNL1     0.2921
     46 H         -5.378553   -3.908667   6.485805 H        1 UNL1     0.2922
     47 H         0.516776   0.365116   2.263902 H        1 UNL1     0.2126
     48 H         1.20169   -1.887682   -0.285086 H        1 UNL1     0.2101
     49 H         -2.022474   0.931782   -0.901669 H        1 UNL1     0.2100
     50 H         -2.674243   -3.339727   -1.148628 H        1 UNL1     0.2102
@<TRIPOS>BOND
     1     1     2    1
     2     1     6    1
     3     2     3    1
     4     3     4    1
     5     3    29    1
     6     3    33    1
     7     4     5    1
     8     5     6    1
     9     5     7    1
    10     5    35    1
    11     7     8    1
    12     8     9   ar
    13     8    13   ar
    14     9    10   ar
    15     9    36    1
    16    10    11   ar
    17    10    26    1
    18    11    12   ar
    19    11    14    1
    20    12    13   ar
    21    12    17    1
    22    13    37    1
    23    14    15    1
    24    14    25    2
    25    15    16    1
    26    15    38    1
    27    15    39    1
    28    16    17    1
    29    16    18    1
    30    16    40    1
    31    18    19   ar
    32    18    23   ar
    33    19    20   ar
    34    19    41    1
    35    20    21   ar
    36    20    42    1
    37    21    22   ar
    38    21    24    1
    39    22    23   ar
    40    22    43    1
    41    23    44    1
    42    24    45    1
    43    26    46    1
    44    27    47    1
    45    28    48    1
    46    29    49    1
    47    30    50    1
    48     1    31    1
    49     1    27    1
    50     2    32    1
    51     2    28    1
    52     4    34    1
    53     4    30    1
