@<TRIPOS>MOLECULE
*****
 50 53 0 0 0
SMALL
GASTEIGER

@<TRIPOS>ATOM
     1 C         -1.481947   -1.109042   -1.159596 C.3        1 UNL1     0.1889
     2 C         -0.057255   -0.525125   -0.961523 C.3        1 UNL1     0.1342
     3 C         0.408626   0.421761   -2.078137 C.3        1 UNL1     0.1174
     4 C         -0.110478   0.012161   -3.458672 C.3        1 UNL1     0.1456
     5 C         -1.611651   -0.329472   -3.447273 C.3        1 UNL1     0.2326
     6 O         -1.867124   -1.365853   -2.502012 O.3        1 UNL1     -0.3076
     7 O         -2.459726   0.819731   -3.270009 O.3        1 UNL1     -0.4605
     8 C         -3.723733   0.731741   -3.825051 C.ar        1 UNL1     0.1310
     9 C         -4.860144   0.234726   -3.177867 C.ar        1 UNL1     0.0226
     10 C         -6.10329   0.202631   -3.820875 C.ar        1 UNL1     0.1343
     11 C         -6.245186   0.689304   -5.119665 C.ar        1 UNL1     0.1007
     12 C         -5.109411   1.150146   -5.790802 C.ar        1 UNL1     0.1389
     13 C         -3.859029   1.179864   -5.144975 C.ar        1 UNL1     0.0229
     14 C         -7.550722   0.756811   -5.816208 C.2        1 UNL1     0.1740
     15 C         -7.556155   1.510435   -7.113733 C.3        1 UNL1     0.0520
     16 C         -6.279622   1.173488   -7.871946 C.3        1 UNL1     0.1322
     17 O         -5.113872   1.550972   -7.106699 O.3        1 UNL1     -0.4828
     18 C         -6.245444   -0.256708   -8.416091 C.ar        1 UNL1     -0.0067
     19 C         -6.31683   -0.469959   -9.808083 C.ar        1 UNL1     -0.0516
     20 C         -6.335757   -1.766405   -10.336128 C.ar        1 UNL1     -0.0198
     21 C         -6.291323   -2.855509   -9.484244 C.ar        1 UNL1     0.1169
     22 C         -6.186927   -2.677482   -8.110838 C.ar        1 UNL1     -0.0198
     23 C         -6.149369   -1.381064   -7.583632 C.ar        1 UNL1     -0.0516
     24 O         -6.349905   -4.103007   -10.032622 O.3        1 UNL1     -0.5068
     25 O         -8.591714   0.304722   -5.346701 O.2        1 UNL1     -0.2917
     26 O         -7.172188   -0.295486   -3.134637 O.3        1 UNL1     -0.5058
     27 O         -2.486987   -0.3996   -0.452932 O.3        1 UNL1     -0.3648
     28 O         0.879638   -1.616898   -0.90703 O.3        1 UNL1     -0.3841
     29 O         0.102937   1.779149   -1.752278 O.3        1 UNL1     -0.3863
     30 O         0.624874   -1.142916   -3.917739 O.3        1 UNL1     -0.3829
     31 H         -1.479375   -2.103128   -0.699307 H        1 UNL1     0.0937
     32 H         0.0   0.0   0.0 H        1 UNL1     0.0671
     33 H         1.505544   0.372544   -2.123618 H        1 UNL1     0.0649
     34 H         0.072023   0.815979   -4.180455 H        1 UNL1     0.0683
     35 H         -1.793981   -0.753587   -4.442643 H        1 UNL1     0.1085
     36 H         -4.827006   -0.106292   -2.148921 H        1 UNL1     0.0691
     37 H         -2.989924   1.54234   -5.689731 H        1 UNL1     0.0691
     38 H         -7.604178   2.57851   -6.876168 H        1 UNL1     0.0385
     39 H         -8.455912   1.245015   -7.679213 H        1 UNL1     0.0385
     40 H         -6.248448   1.822246   -8.757758 H        1 UNL1     0.0789
     41 H         -6.361933   0.368249   -10.497302 H        1 UNL1     0.0623
     42 H         -6.403001   -1.917868   -11.410628 H        1 UNL1     0.0654
     43 H         -6.136325   -3.523295   -7.435596 H        1 UNL1     0.0654
     44 H         -6.056775   -1.279033   -6.506664 H        1 UNL1     0.0623
     45 H         -5.448975   -4.462693   -10.073445 H        1 UNL1     0.2921
     46 H         -6.859255   -0.769081   -2.347749 H        1 UNL1     0.2922
     47 H         -2.261277   -0.345773   0.486226 H        1 UNL1     0.2126
     48 H         0.745836   -2.057552   -0.045837 H        1 UNL1     0.2101
     49 H         -0.717763   2.048023   -2.194943 H        1 UNL1     0.2100
     50 H         1.550038   -0.865687   -4.081839 H        1 UNL1     0.2102
@<TRIPOS>BOND
     1     1     2    1
     2     1     6    1
     3     2     3    1
     4     3     4    1
     5     3    29    1
     6     3    33    1
     7     4     5    1
     8     5     6    1
     9     5     7    1
    10     5    35    1
    11     7     8    1
    12     8     9   ar
    13     8    13   ar
    14     9    10   ar
    15     9    36    1
    16    10    11   ar
    17    10    26    1
    18    11    12   ar
    19    11    14    1
    20    12    13   ar
    21    12    17    1
    22    13    37    1
    23    14    15    1
    24    14    25    2
    25    15    16    1
    26    15    38    1
    27    15    39    1
    28    16    17    1
    29    16    18    1
    30    16    40    1
    31    18    19   ar
    32    18    23   ar
    33    19    20   ar
    34    19    41    1
    35    20    21   ar
    36    20    42    1
    37    21    22   ar
    38    21    24    1
    39    22    23   ar
    40    22    43    1
    41    23    44    1
    42    24    45    1
    43    26    46    1
    44    27    47    1
    45    28    48    1
    46    29    49    1
    47    30    50    1
    48     1    31    1
    49     1    27    1
    50     2    32    1
    51     2    28    1
    52     4    34    1
    53     4    30    1
