@<TRIPOS>MOLECULE
*****
 50 53 0 0 0
SMALL
GASTEIGER

@<TRIPOS>ATOM
     1 C         -0.334521   -1.331852   1.69855 C.3        1 UNL1     0.1889
     2 C         -0.459787   -0.977317   0.192378 C.3        1 UNL1     0.1342
     3 C         -1.898353   -0.969206   -0.346997 C.3        1 UNL1     0.1174
     4 C         -2.783674   -2.032546   0.307703 C.3        1 UNL1     0.1456
     5 C         -2.63855   -2.059451   1.840211 C.3        1 UNL1     0.2326
     6 O         -1.274395   -2.273116   2.195594 O.3        1 UNL1     -0.3076
     7 O         -3.220385   -0.91537   2.491262 O.3        1 UNL1     -0.4605
     8 C         -3.734575   -1.134353   3.75664 C.ar        1 UNL1     0.1310
     9 C         -4.548493   -2.21083   4.125471 C.ar        1 UNL1     0.0226
     10 C         -5.006414   -2.3546   5.440592 C.ar        1 UNL1     0.1343
     11 C         -4.641587   -1.437355   6.425174 C.ar        1 UNL1     0.1007
     12 C         -3.862971   -0.335914   6.059976 C.ar        1 UNL1     0.1389
     13 C         -3.404843   -0.19015   4.736986 C.ar        1 UNL1     0.0229
     14 C         -5.027631   -1.586445   7.84746 C.2        1 UNL1     0.1740
     15 C         -4.366176   -0.636971   8.802722 C.3        1 UNL1     0.0520
     16 C         -4.299238   0.736108   8.148406 C.3        1 UNL1     0.1322
     17 O         -3.535349   0.683663   6.923337 O.3        1 UNL1     -0.4828
     18 C         -5.66051   1.42365   8.018225 C.ar        1 UNL1     -0.0067
     19 C         -6.036544   1.986667   6.781365 C.ar        1 UNL1     -0.0516
     20 C         -7.253756   2.663865   6.640793 C.ar        1 UNL1     -0.0198
     21 C         -8.098468   2.790954   7.728974 C.ar        1 UNL1     0.1169
     22 C         -7.771124   2.218387   8.951206 C.ar        1 UNL1     -0.0198
     23 C         -6.562377   1.525213   9.087204 C.ar        1 UNL1     -0.0516
     24 O         -9.258087   3.48987   7.564047 O.3        1 UNL1     -0.5068
     25 O         -5.774855   -2.471439   8.256025 O.2        1 UNL1     -0.2917
     26 O         -5.797995   -3.426235   5.734842 O.3        1 UNL1     -0.5058
     27 O         -0.236897   -0.194418   2.540869 O.3        1 UNL1     -0.3648
     28 O         0.277507   -1.952081   -0.568503 O.3        1 UNL1     -0.3841
     29 O         -2.460811   0.342306   -0.271441 O.3        1 UNL1     -0.3863
     30 O         -2.429235   -3.331372   -0.2149 O.3        1 UNL1     -0.3829
     31 H         0.627453   -1.841446   1.821018 H        1 UNL1     0.0937
     32 H         0.0   0.0   0.0 H        1 UNL1     0.0671
     33 H         -1.855884   -1.207142   -1.419053 H        1 UNL1     0.0649
     34 H         -3.833316   -1.857607   0.046843 H        1 UNL1     0.0683
     35 H         -3.191366   -2.957712   2.142534 H        1 UNL1     0.1085
     36 H         -4.821139   -2.987635   3.419526 H        1 UNL1     0.0691
     37 H         -2.800923   0.67686   4.478015 H        1 UNL1     0.0691
     38 H         -3.363257   -1.023667   9.012836 H        1 UNL1     0.0385
     39 H         -4.930304   -0.621216   9.741493 H        1 UNL1     0.0385
     40 H         -3.70945   1.382623   8.81225 H        1 UNL1     0.0789
     41 H         -5.386871   1.908452   5.914497 H        1 UNL1     0.0623
     42 H         -7.527023   3.103957   5.68494 H        1 UNL1     0.0654
     43 H         -8.432157   2.298954   9.805873 H        1 UNL1     0.0654
     44 H         -6.343573   1.081426   10.053653 H        1 UNL1     0.0623
     45 H         -9.034344   4.398585   7.305411 H        1 UNL1     0.2921
     46 H         -5.395208   -3.938219   6.453902 H        1 UNL1     0.2922
     47 H         0.50528   0.362354   2.266939 H        1 UNL1     0.2126
     48 H         1.20897   -1.883307   -0.283231 H        1 UNL1     0.2101
     49 H         -2.02129   0.927119   -0.909101 H        1 UNL1     0.2100
     50 H         -2.65835   -3.345947   -1.167269 H        1 UNL1     0.2102
@<TRIPOS>BOND
     1     1     2    1
     2     1     6    1
     3     2     3    1
     4     3     4    1
     5     3    29    1
     6     3    33    1
     7     4     5    1
     8     5     6    1
     9     5     7    1
    10     5    35    1
    11     7     8    1
    12     8     9   ar
    13     8    13   ar
    14     9    10   ar
    15     9    36    1
    16    10    11   ar
    17    10    26    1
    18    11    12   ar
    19    11    14    1
    20    12    13   ar
    21    12    17    1
    22    13    37    1
    23    14    15    1
    24    14    25    2
    25    15    16    1
    26    15    38    1
    27    15    39    1
    28    16    17    1
    29    16    18    1
    30    16    40    1
    31    18    19   ar
    32    18    23   ar
    33    19    20   ar
    34    19    41    1
    35    20    21   ar
    36    20    42    1
    37    21    22   ar
    38    21    24    1
    39    22    23   ar
    40    22    43    1
    41    23    44    1
    42    24    45    1
    43    26    46    1
    44    27    47    1
    45    28    48    1
    46    29    49    1
    47    30    50    1
    48     1    31    1
    49     1    27    1
    50     2    32    1
    51     2    28    1
    52     4    34    1
    53     4    30    1
