@<TRIPOS>MOLECULE
*****
 50 53 0 0 0
SMALL
GASTEIGER

@<TRIPOS>ATOM
     1 C         -0.500646   -1.516151   1.490451 C.3        1 UNL1     0.1889
     2 C         -0.404176   -1.01965   0.022759 C.3        1 UNL1     0.1342
     3 C         -1.729897   -1.050617   -0.75311 C.3        1 UNL1     0.1174
     4 C         -2.621609   -2.230257   -0.357613 C.3        1 UNL1     0.1456
     5 C         -2.729554   -2.402892   1.168463 C.3        1 UNL1     0.2326
     6 O         -1.429907   -2.562173   1.732746 O.3        1 UNL1     -0.3076
     7 O         -3.501917   -1.371059   1.808851 O.3        1 UNL1     -0.4605
     8 C         -4.207634   -1.753061   2.935601 C.ar        1 UNL1     0.1310
     9 C         -5.22254   -2.715445   2.968511 C.ar        1 UNL1     0.0226
     10 C         -5.867963   -3.045956   4.166048 C.ar        1 UNL1     0.1343
     11 C         -5.497358   -2.438591   5.365048 C.ar        1 UNL1     0.1007
     12 C         -4.513551   -1.446534   5.338058 C.ar        1 UNL1     0.1389
     13 C         -3.866566   -1.112493   4.133376 C.ar        1 UNL1     0.0229
     14 C         -6.087517   -2.809874   6.671958 C.2        1 UNL1     0.1740
     15 C         -5.417677   -2.219682   7.878 C.3        1 UNL1     0.0520
     16 C         -5.049126   -0.775775   7.566138 C.3        1 UNL1     0.1322
     17 O         -4.147144   -0.708618   6.439645 O.3        1 UNL1     -0.4828
     18 C         -6.255695   0.161008   7.469419 C.ar        1 UNL1     -0.0067
     19 C         -6.04649   1.552238   7.374942 C.ar        1 UNL1     -0.0516
     20 C         -7.128141   2.440048   7.332682 C.ar        1 UNL1     -0.0198
     21 C         -8.42079   1.950729   7.391439 C.ar        1 UNL1     0.1169
     22 C         -8.659363   0.583843   7.450976 C.ar        1 UNL1     -0.0198
     23 C         -7.578174   -0.305272   7.474639 C.ar        1 UNL1     -0.0516
     24 O         -9.448256   2.847772   7.386065 O.3        1 UNL1     -0.5068
     25 O         -7.012296   -3.608908   6.793671 O.2        1 UNL1     -0.2917
     26 O         -6.850342   -3.992112   4.129941 O.3        1 UNL1     -0.5058
     27 O         -0.636148   -0.46605   2.434758 O.3        1 UNL1     -0.3648
     28 O         0.525337   -1.862138   -0.683587 O.3        1 UNL1     -0.3841
     29 O         -2.401907   0.207038   -0.659108 O.3        1 UNL1     -0.3863
     30 O         -2.081363   -3.443542   -0.924853 O.3        1 UNL1     -0.3829
     31 H         0.466171   -1.971786   1.730742 H        1 UNL1     0.0937
     32 H         0.0   0.0   0.0 H        1 UNL1     0.0671
     33 H         -1.491965   -1.175358   -1.818731 H        1 UNL1     0.0649
     34 H         -3.624549   -2.098517   -0.778512 H        1 UNL1     0.0683
     35 H         -3.249739   -3.361269   1.290117 H        1 UNL1     0.1085
     36 H         -5.517845   -3.263324   2.080398 H        1 UNL1     0.0691
     37 H         -3.10472   -0.335928   4.138887 H        1 UNL1     0.0691
     38 H         -4.525041   -2.818738   8.087427 H        1 UNL1     0.0385
     39 H         -6.091928   -2.298497   8.737624 H        1 UNL1     0.0385
     40 H         -4.458396   -0.402222   8.413496 H        1 UNL1     0.0789
     41 H         -5.04133   1.961909   7.336552 H        1 UNL1     0.0623
     42 H         -6.953652   3.511429   7.27179 H        1 UNL1     0.0654
     43 H         -9.667866   0.189061   7.482253 H        1 UNL1     0.0654
     44 H         -7.801521   -1.367185   7.510722 H        1 UNL1     0.0623
     45 H         -9.767887   2.942534   6.474158 H        1 UNL1     0.2921
     46 H         -6.735359   -4.606347   4.872171 H        1 UNL1     0.2922
     47 H         0.190949   0.030945   2.50379 H        1 UNL1     0.2126
     48 H         0.489372   -1.593219   -1.621735 H        1 UNL1     0.2101
     49 H         -3.081954   0.166985   0.032069 H        1 UNL1     0.2100
     50 H         -1.736003   -3.231651   -1.816784 H        1 UNL1     0.2102
@<TRIPOS>BOND
     1     1     2    1
     2     1     6    1
     3     2     3    1
     4     3     4    1
     5     3    29    1
     6     3    33    1
     7     4     5    1
     8     5     6    1
     9     5     7    1
    10     5    35    1
    11     7     8    1
    12     8     9   ar
    13     8    13   ar
    14     9    10   ar
    15     9    36    1
    16    10    11   ar
    17    10    26    1
    18    11    12   ar
    19    11    14    1
    20    12    13   ar
    21    12    17    1
    22    13    37    1
    23    14    15    1
    24    14    25    2
    25    15    16    1
    26    15    38    1
    27    15    39    1
    28    16    17    1
    29    16    18    1
    30    16    40    1
    31    18    19   ar
    32    18    23   ar
    33    19    20   ar
    34    19    41    1
    35    20    21   ar
    36    20    42    1
    37    21    22   ar
    38    21    24    1
    39    22    23   ar
    40    22    43    1
    41    23    44    1
    42    24    45    1
    43    26    46    1
    44    27    47    1
    45    28    48    1
    46    29    49    1
    47    30    50    1
    48     1    31    1
    49     1    27    1
    50     2    32    1
    51     2    28    1
    52     4    34    1
    53     4    30    1
