@<TRIPOS>MOLECULE
*****
 50 53 0 0 0
SMALL
GASTEIGER

@<TRIPOS>ATOM
     1 C         0.425502   -0.261068   -2.126405 C.3        1 UNL1     0.1889
     2 C         0.18857   -0.824066   -0.699227 C.3        1 UNL1     0.1342
     3 C         1.333188   -1.691862   -0.154026 C.3        1 UNL1     0.1174
     4 C         2.02208   -2.518121   -1.24299 C.3        1 UNL1     0.1456
     5 C         2.345018   -1.687607   -2.498506 C.3        1 UNL1     0.2326
     6 O         1.152102   -1.099697   -3.012491 O.3        1 UNL1     -0.3076
     7 O         3.404797   -0.734631   -2.298444 O.3        1 UNL1     -0.4605
     8 C         3.737795   -0.465578   -0.983054 C.ar        1 UNL1     0.1310
     9 C         3.206893   -1.115343   0.136432 C.ar        1 UNL1     0.0226
     10 C         3.621997   -0.782011   1.431222 C.ar        1 UNL1     0.1343
     11 C         4.596503   0.193653   1.63679 C.ar        1 UNL1     0.1007
     12 C         5.104159   0.878055   0.529243 C.ar        1 UNL1     0.1389
     13 C         4.68468   0.544545   -0.772387 C.ar        1 UNL1     0.0229
     14 C         5.132538   0.526668   2.976911 C.2        1 UNL1     0.1740
     15 C         6.327507   1.43408   2.991105 C.3        1 UNL1     0.0520
     16 C         6.124897   2.514079   1.937298 C.3        1 UNL1     0.1322
     17 O         5.986509   1.92916   0.623605 O.3        1 UNL1     -0.4828
     18 C         5.037978   3.529883   2.297117 C.ar        1 UNL1     -0.0067
     19 C         4.871721   4.678929   1.49695 C.ar        1 UNL1     -0.0516
     20 C         3.919138   5.651009   1.824986 C.ar        1 UNL1     -0.0198
     21 C         3.133493   5.489645   2.952172 C.ar        1 UNL1     0.1169
     22 C         3.250718   4.352744   3.741193 C.ar        1 UNL1     -0.0198
     23 C         4.19048   3.371639   3.403057 C.ar        1 UNL1     -0.0516
     24 O         2.242794   6.475362   3.261069 O.3        1 UNL1     -0.5068
     25 O         4.697699   0.04242   4.018498 O.2        1 UNL1     -0.2917
     26 O         3.064345   -1.452614   2.48046 O.3        1 UNL1     -0.5058
     27 O         0.924673   1.066918   -2.134619 O.3        1 UNL1     -0.3648
     28 O         -0.995729   -1.642357   -0.722505 O.3        1 UNL1     -0.3841
     29 O         2.250814   -0.902189   0.605257 O.3        1 UNL1     -0.3863
     30 O         1.161972   -3.615035   -1.620724 O.3        1 UNL1     -0.3829
     31 H         -0.559638   -0.181767   -2.59894 H        1 UNL1     0.0937
     32 H         0.0   0.0   0.0 H        1 UNL1     0.0671
     33 H         0.901367   -2.405781   0.561215 H        1 UNL1     0.0649
     34 H         2.946851   -2.956092   -0.851352 H        1 UNL1     0.0683
     35 H         2.674342   -2.434183   -3.232024 H        1 UNL1     0.1085
     36 H         2.487391   -1.921055   0.040174 H        1 UNL1     0.0691
     37 H         5.094347   1.093078   -1.617832 H        1 UNL1     0.0691
     38 H         7.209181   0.824157   2.767117 H        1 UNL1     0.0385
     39 H         6.447906   1.85335   3.995842 H        1 UNL1     0.0385
     40 H         7.05701   3.092683   1.883404 H        1 UNL1     0.0789
     41 H         5.4824   4.833311   0.61214 H        1 UNL1     0.0623
     42 H         3.808682   6.538417   1.206666 H        1 UNL1     0.0654
     43 H         2.630138   4.20911   4.617641 H        1 UNL1     0.0654
     44 H         4.24773   2.491274   4.035927 H        1 UNL1     0.0623
     45 H         2.519265   7.290401   2.811634 H        1 UNL1     0.2921
     46 H         3.448205   -1.13024   3.311206 H        1 UNL1     0.2922
     47 H         1.891332   1.061488   -2.097184 H        1 UNL1     0.2126
     48 H         -0.797199   -2.436902   -0.190512 H        1 UNL1     0.2101
     49 H         2.23151   0.016781   0.293945 H        1 UNL1     0.2100
     50 H         0.734577   -3.383933   -2.471394 H        1 UNL1     0.2102
@<TRIPOS>BOND
     1     1     2    1
     2     1     6    1
     3     2     3    1
     4     3     4    1
     5     3    29    1
     6     3    33    1
     7     4     5    1
     8     5     6    1
     9     5     7    1
    10     5    35    1
    11     7     8    1
    12     8     9   ar
    13     8    13   ar
    14     9    10   ar
    15     9    36    1
    16    10    11   ar
    17    10    26    1
    18    11    12   ar
    19    11    14    1
    20    12    13   ar
    21    12    17    1
    22    13    37    1
    23    14    15    1
    24    14    25    2
    25    15    16    1
    26    15    38    1
    27    15    39    1
    28    16    17    1
    29    16    18    1
    30    16    40    1
    31    18    19   ar
    32    18    23   ar
    33    19    20   ar
    34    19    41    1
    35    20    21   ar
    36    20    42    1
    37    21    22   ar
    38    21    24    1
    39    22    23   ar
    40    22    43    1
    41    23    44    1
    42    24    45    1
    43    26    46    1
    44    27    47    1
    45    28    48    1
    46    29    49    1
    47    30    50    1
    48     1    31    1
    49     1    27    1
    50     2    32    1
    51     2    28    1
    52     4    34    1
    53     4    30    1
