@<TRIPOS>MOLECULE
*****
 50 53 0 0 0
SMALL
GASTEIGER

@<TRIPOS>ATOM
     1 C         -0.291011   -1.361166   1.683254 C.3        1 UNL1     0.1889
     2 C         -0.452835   -0.981658   0.186682 C.3        1 UNL1     0.1342
     3 C         -1.903824   -0.968353   -0.318215 C.3        1 UNL1     0.1174
     4 C         -2.770891   -2.044957   0.33923 C.3        1 UNL1     0.1456
     5 C         -2.589343   -2.097273   1.867192 C.3        1 UNL1     0.2326
     6 O         -1.216643   -2.313205   2.186466 O.3        1 UNL1     -0.3076
     7 O         -3.158182   -0.965895   2.551098 O.3        1 UNL1     -0.4605
     8 C         -3.641663   -1.207546   3.824432 C.ar        1 UNL1     0.1310
     9 C         -4.444109   -2.292277   4.194214 C.ar        1 UNL1     0.0226
     10 C         -4.870329   -2.459411   5.517205 C.ar        1 UNL1     0.1343
     11 C         -4.48433   -1.557894   6.50822 C.ar        1 UNL1     0.1007
     12 C         -3.717148   -0.448359   6.143328 C.ar        1 UNL1     0.1389
     13 C         -3.290912   -0.279098   4.812499 C.ar        1 UNL1     0.0229
     14 C         -4.836135   -1.731957   7.936537 C.2        1 UNL1     0.1740
     15 C         -4.154364   -0.796921   8.891756 C.3        1 UNL1     0.0520
     16 C         -4.106149   0.587159   8.259334 C.3        1 UNL1     0.1322
     17 O         -3.371458   0.557417   7.015785 O.3        1 UNL1     -0.4828
     18 C         -5.47171   1.273113   8.173107 C.ar        1 UNL1     -0.0067
     19 C         -5.878313   1.855861   6.955202 C.ar        1 UNL1     -0.0516
     20 C         -7.100077   2.532038   6.854997 C.ar        1 UNL1     -0.0198
     21 C         -7.918992   2.638499   7.964894 C.ar        1 UNL1     0.1169
     22 C         -7.56139   2.046318   9.16917 C.ar        1 UNL1     -0.0198
     23 C         -6.34816   1.354222   9.264734 C.ar        1 UNL1     -0.0516
     24 O         -9.083807   3.336957   7.839345 O.3        1 UNL1     -0.5068
     25 O         -5.571404   -2.625723   8.347691 O.2        1 UNL1     -0.2917
     26 O         -5.652228   -3.537985   5.811991 O.3        1 UNL1     -0.5058
     27 O         -0.176026   -0.237819   2.542123 O.3        1 UNL1     -0.3648
     28 O         0.268419   -1.941473   -0.607831 O.3        1 UNL1     -0.3841
     29 O         -2.467346   0.340176   -0.207191 O.3        1 UNL1     -0.3863
     30 O         -2.425977   -3.333835   -0.213505 O.3        1 UNL1     -0.3829
     31 H         0.674771   -1.870148   1.774247 H        1 UNL1     0.0937
     32 H         0.0   0.0   0.0 H        1 UNL1     0.0671
     33 H         -1.886284   -1.188086   -1.394844 H        1 UNL1     0.0649
     34 H         -3.826834   -1.868488   0.106326 H        1 UNL1     0.0683
     35 H         -3.132753   -3.001989   2.167315 H        1 UNL1     0.1085
     36 H         -4.731658   -3.057818   3.481905 H        1 UNL1     0.0691
     37 H         -2.695312   0.59378   4.55397 H        1 UNL1     0.0691
     38 H         -3.145849   -1.184388   9.071465 H        1 UNL1     0.0385
     39 H         -4.696068   -0.798502   9.843771 H        1 UNL1     0.0385
     40 H         -3.502249   1.223995   8.919837 H        1 UNL1     0.0789
     41 H         -5.249237   1.794011   6.071975 H        1 UNL1     0.0623
     42 H         -7.396985   2.987424   5.913466 H        1 UNL1     0.0654
     43 H         -8.202118   2.110694   10.04051 H        1 UNL1     0.0654
     44 H         -6.105439   0.894815   10.218085 H        1 UNL1     0.0623
     45 H         -8.868365   4.2505   7.59087 H        1 UNL1     0.2921
     46 H         -5.231211   -4.06101   6.512421 H        1 UNL1     0.2922
     47 H         0.558151   0.325491   2.26012 H        1 UNL1     0.2126
     48 H         1.206234   -1.874996   -0.343605 H        1 UNL1     0.2101
     49 H         -2.044444   0.93683   -0.845119 H        1 UNL1     0.2100
     50 H         -2.677616   -3.332989   -1.160284 H        1 UNL1     0.2102
@<TRIPOS>BOND
     1     1     2    1
     2     1     6    1
     3     2     3    1
     4     3     4    1
     5     3    29    1
     6     3    33    1
     7     4     5    1
     8     5     6    1
     9     5     7    1
    10     5    35    1
    11     7     8    1
    12     8     9   ar
    13     8    13   ar
    14     9    10   ar
    15     9    36    1
    16    10    11   ar
    17    10    26    1
    18    11    12   ar
    19    11    14    1
    20    12    13   ar
    21    12    17    1
    22    13    37    1
    23    14    15    1
    24    14    25    2
    25    15    16    1
    26    15    38    1
    27    15    39    1
    28    16    17    1
    29    16    18    1
    30    16    40    1
    31    18    19   ar
    32    18    23   ar
    33    19    20   ar
    34    19    41    1
    35    20    21   ar
    36    20    42    1
    37    21    22   ar
    38    21    24    1
    39    22    23   ar
    40    22    43    1
    41    23    44    1
    42    24    45    1
    43    26    46    1
    44    27    47    1
    45    28    48    1
    46    29    49    1
    47    30    50    1
    48     1    31    1
    49     1    27    1
    50     2    32    1
    51     2    28    1
    52     4    34    1
    53     4    30    1
