@<TRIPOS>MOLECULE
*****
 50 53 0 0 0
SMALL
GASTEIGER

@<TRIPOS>ATOM
     1 C         -0.326528   -1.33948   1.694101 C.3        1 UNL1     0.1889
     2 C         -0.462418   -0.976365   0.190897 C.3        1 UNL1     0.1342
     3 C         -1.905243   -0.959244   -0.336766 C.3        1 UNL1     0.1174
     4 C         -2.789816   -2.022291   0.319419 C.3        1 UNL1     0.1456
     5 C         -2.632446   -2.058009   1.850537 C.3        1 UNL1     0.2326
     6 O         -1.266399   -2.279379   2.193727 O.3        1 UNL1     -0.3076
     7 O         -3.204081   -0.914959   2.512346 O.3        1 UNL1     -0.4605
     8 C         -3.709405   -1.138619   3.780475 C.ar        1 UNL1     0.1310
     9 C         -4.525245   -2.21349   4.149744 C.ar        1 UNL1     0.0226
     10 C         -4.973579   -2.362462   5.467585 C.ar        1 UNL1     0.1343
     11 C         -4.597015   -1.452274   6.454296 C.ar        1 UNL1     0.1007
     12 C         -3.816337   -0.352303   6.089071 C.ar        1 UNL1     0.1389
     13 C         -3.367848   -0.201295   4.763369 C.ar        1 UNL1     0.0229
     14 C         -4.972667   -1.607473   7.878709 C.2        1 UNL1     0.1740
     15 C         -4.299571   -0.666212   8.833967 C.3        1 UNL1     0.0520
     16 C         -4.231571   0.710136   8.186665 C.3        1 UNL1     0.1322
     17 O         -3.47746   0.661046   6.955415 O.3        1 UNL1     -0.4828
     18 C         -5.590722   1.404412   8.070854 C.ar        1 UNL1     -0.0067
     19 C         -5.97264   1.978335   6.840827 C.ar        1 UNL1     -0.0516
     20 C         -7.18785   2.661734   6.713574 C.ar        1 UNL1     -0.0198
     21 C         -8.024674   2.784194   7.80836 C.ar        1 UNL1     0.1169
     22 C         -7.691583   2.20104   9.024016 C.ar        1 UNL1     -0.0198
     23 C         -6.484937   1.501735   9.146633 C.ar        1 UNL1     -0.0516
     24 O         -9.182362   3.48925   7.656527 O.3        1 UNL1     -0.5068
     25 O         -5.720649   -2.491381   8.288238 O.2        1 UNL1     -0.2917
     26 O         -5.76764   -3.432179   5.762131 O.3        1 UNL1     -0.5058
     27 O         -0.217217   -0.206993   2.541634 O.3        1 UNL1     -0.3648
     28 O         0.264511   -1.950177   -0.581094 O.3        1 UNL1     -0.3841
     29 O         -2.461426   0.354229   -0.249693 O.3        1 UNL1     -0.3863
     30 O         -2.445197   -3.319801   -0.21293 O.3        1 UNL1     -0.3829
     31 H         0.634203   -1.853814   1.80607 H        1 UNL1     0.0937
     32 H         0.0   0.0   0.0 H        1 UNL1     0.0671
     33 H         -1.872451   -1.191622   -1.41038 H        1 UNL1     0.0649
     34 H         -3.840768   -1.841492   0.067996 H        1 UNL1     0.0683
     35 H         -3.186663   -2.955512   2.152548 H        1 UNL1     0.1085
     36 H         -4.806838   -2.985183   3.441707 H        1 UNL1     0.0691
     37 H         -2.762082   0.664441   4.504446 H        1 UNL1     0.0691
     38 H         -3.296792   -1.0585   9.034145 H        1 UNL1     0.0385
     39 H         -4.856316   -0.653121   9.777175 H        1 UNL1     0.0385
     40 H         -3.633758   1.350368   8.84942 H        1 UNL1     0.0789
     41 H         -5.329152   1.903904   5.969028 H        1 UNL1     0.0623
     42 H         -7.465644   3.11018   5.762922 H        1 UNL1     0.0654
     43 H         -8.346503   2.277962   9.88371 H        1 UNL1     0.0654
     44 H         -6.261549   1.049745   10.10822 H        1 UNL1     0.0623
     45 H         -8.95629   4.400392   7.408679 H        1 UNL1     0.2921
     46 H         -5.362264   -3.949121   6.47617 H        1 UNL1     0.2922
     47 H         0.523414   0.349495   2.262984 H        1 UNL1     0.2126
     48 H         1.199464   -1.882967   -0.30709 H        1 UNL1     0.2101
     49 H         -2.024674   0.940524   -0.887893 H        1 UNL1     0.2100
     50 H         -2.682051   -3.328306   -1.163477 H        1 UNL1     0.2102
@<TRIPOS>BOND
     1     1     2    1
     2     1     6    1
     3     2     3    1
     4     3     4    1
     5     3    29    1
     6     3    33    1
     7     4     5    1
     8     5     6    1
     9     5     7    1
    10     5    35    1
    11     7     8    1
    12     8     9   ar
    13     8    13   ar
    14     9    10   ar
    15     9    36    1
    16    10    11   ar
    17    10    26    1
    18    11    12   ar
    19    11    14    1
    20    12    13   ar
    21    12    17    1
    22    13    37    1
    23    14    15    1
    24    14    25    2
    25    15    16    1
    26    15    38    1
    27    15    39    1
    28    16    17    1
    29    16    18    1
    30    16    40    1
    31    18    19   ar
    32    18    23   ar
    33    19    20   ar
    34    19    41    1
    35    20    21   ar
    36    20    42    1
    37    21    22   ar
    38    21    24    1
    39    22    23   ar
    40    22    43    1
    41    23    44    1
    42    24    45    1
    43    26    46    1
    44    27    47    1
    45    28    48    1
    46    29    49    1
    47    30    50    1
    48     1    31    1
    49     1    27    1
    50     2    32    1
    51     2    28    1
    52     4    34    1
    53     4    30    1
