@<TRIPOS>MOLECULE
*****
 50 53 0 0 0
SMALL
GASTEIGER

@<TRIPOS>ATOM
     1 C         1.295317   0.989918   -1.453624 C.3        1 UNL1     0.1889
     2 C         1.070723   0.193634   -0.140067 C.3        1 UNL1     0.1342
     3 C         1.627117   0.869401   1.122561 C.3        1 UNL1     0.1174
     4 C         2.921093   1.64388   0.860022 C.3        1 UNL1     0.1456
     5 C         2.834129   2.529924   -0.396054 C.3        1 UNL1     0.2326
     6 O         2.502854   1.733059   -1.531013 O.3        1 UNL1     -0.3076
     7 O         1.971555   3.670592   -0.234301 O.3        1 UNL1     -0.4605
     8 C         2.273718   4.774194   -1.01166 C.ar        1 UNL1     0.1310
     9 C         2.822619   5.971628   -0.540322 C.ar        1 UNL1     0.0226
     10 C         3.109688   7.028764   -1.412077 C.ar        1 UNL1     0.1343
     11 C         2.876695   6.905153   -2.781119 C.ar        1 UNL1     0.1007
     12 C         2.290736   5.729582   -3.258055 C.ar        1 UNL1     0.1389
     13 C         1.999732   4.667782   -2.38094 C.ar        1 UNL1     0.0229
     14 C         3.238768   7.958195   -3.75793 C.2        1 UNL1     0.1740
     15 C         3.125013   7.570204   -5.202946 C.3        1 UNL1     0.0520
     16 C         1.863155   6.736981   -5.380181 C.3        1 UNL1     0.1322
     17 O         1.919175   5.542682   -4.569267 O.3        1 UNL1     -0.4828
     18 C         0.568667   7.541002   -5.236739 C.ar        1 UNL1     -0.0067
     19 C         0.08574   7.852114   -3.949026 C.ar        1 UNL1     -0.0516
     20 C         -1.119357   8.544735   -3.781755 C.ar        1 UNL1     -0.0198
     21 C         -1.852849   8.924448   -4.891546 C.ar        1 UNL1     0.1169
     22 C         -1.38669   8.661892   -6.173185 C.ar        1 UNL1     -0.0198
     23 C         -0.172449   7.985514   -6.341071 C.ar        1 UNL1     -0.0516
     24 O         -3.040391   9.564009   -4.688801 O.3        1 UNL1     -0.5068
     25 O         3.682363   9.056845   -3.43439 O.2        1 UNL1     -0.2917
     26 O         3.643057   8.170291   -0.888608 O.3        1 UNL1     -0.5058
     27 O         0.174915   1.769381   -1.840823 O.3        1 UNL1     -0.3648
     28 O         1.721987   -1.0843   -0.264353 O.3        1 UNL1     -0.3841
     29 O         0.623738   1.666404   1.755134 O.3        1 UNL1     -0.3863
     30 O         4.008002   0.707669   0.693205 O.3        1 UNL1     -0.3829
     31 H         1.398491   0.249597   -2.254473 H        1 UNL1     0.0937
     32 H         0.0   0.0   0.0 H        1 UNL1     0.0671
     33 H         1.871029   0.07904   1.846133 H        1 UNL1     0.0649
     34 H         3.165778   2.267999   1.726628 H        1 UNL1     0.0683
     35 H         3.862803   2.882232   -0.542981 H        1 UNL1     0.1085
     36 H         3.078715   6.109191   0.50448 H        1 UNL1     0.0691
     37 H         1.542723   3.763516   -2.777095 H        1 UNL1     0.0691
     38 H         4.019021   6.993123   -5.462277 H        1 UNL1     0.0385
     39 H         3.112552   8.476465   -5.818018 H        1 UNL1     0.0385
     40 H         1.862256   6.366848   -6.414358 H        1 UNL1     0.0789
     41 H         0.638351   7.55706   -3.061775 H        1 UNL1     0.0623
     42 H         -1.487117   8.768279   -2.78336 H        1 UNL1     0.0654
     43 H         -1.94565   8.967981   -7.049418 H        1 UNL1     0.0654
     44 H         0.166756   7.806424   -7.356804 H        1 UNL1     0.0623
     45 H         -3.162494   9.68857   -3.733661 H        1 UNL1     0.2921
     46 H         2.971054   8.870162   -0.88687 H        1 UNL1     0.2922
     47 H         -0.640494   1.260009   -1.73354 H        1 UNL1     0.2126
     48 H         1.103322   -1.749533   0.094049 H        1 UNL1     0.2101
     49 H         -0.237677   1.223983   1.691713 H        1 UNL1     0.2100
     50 H         3.623247   -0.189537   0.611359 H        1 UNL1     0.2102
@<TRIPOS>BOND
     1     1     2    1
     2     1     6    1
     3     2     3    1
     4     3     4    1
     5     3    29    1
     6     3    33    1
     7     4     5    1
     8     5     6    1
     9     5     7    1
    10     5    35    1
    11     7     8    1
    12     8     9   ar
    13     8    13   ar
    14     9    10   ar
    15     9    36    1
    16    10    11   ar
    17    10    26    1
    18    11    12   ar
    19    11    14    1
    20    12    13   ar
    21    12    17    1
    22    13    37    1
    23    14    15    1
    24    14    25    2
    25    15    16    1
    26    15    38    1
    27    15    39    1
    28    16    17    1
    29    16    18    1
    30    16    40    1
    31    18    19   ar
    32    18    23   ar
    33    19    20   ar
    34    19    41    1
    35    20    21   ar
    36    20    42    1
    37    21    22   ar
    38    21    24    1
    39    22    23   ar
    40    22    43    1
    41    23    44    1
    42    24    45    1
    43    26    46    1
    44    27    47    1
    45    28    48    1
    46    29    49    1
    47    30    50    1
    48     1    31    1
    49     1    27    1
    50     2    32    1
    51     2    28    1
    52     4    34    1
    53     4    30    1
