@<TRIPOS>MOLECULE
*****
 50 53 0 0 0
SMALL
GASTEIGER

@<TRIPOS>ATOM
     1 C         -0.664063   -1.142284   1.739256 C.3        1 UNL1     0.1889
     2 C         -0.555099   -0.923527   0.206216 C.3        1 UNL1     0.1342
     3 C         -1.901711   -0.874184   -0.5318 C.3        1 UNL1     0.1174
     4 C         -2.946784   -1.812547   0.076817 C.3        1 UNL1     0.1456
     5 C         -3.014682   -1.704592   1.611124 C.3        1 UNL1     0.2326
     6 O         -1.732166   -1.970685   2.174344 O.3        1 UNL1     -0.3076
     7 O         -3.590752   -0.46957   2.073926 O.3        1 UNL1     -0.4605
     8 C         -4.298064   -0.537801   3.260763 C.ar        1 UNL1     0.1310
     9 C         -5.237824   -1.520977   3.588663 C.ar        1 UNL1     0.0226
     10 C         -5.890993   -1.513546   4.826895 C.ar        1 UNL1     0.1343
     11 C         -5.602432   -0.535361   5.777541 C.ar        1 UNL1     0.1007
     12 C         -4.696084   0.475237   5.445867 C.ar        1 UNL1     0.1389
     13 C         -4.041417   0.469052   4.199751 C.ar        1 UNL1     0.0229
     14 C         -6.20062   -0.528034   7.132632 C.2        1 UNL1     0.1740
     15 C         -5.612714   0.460296   8.096541 C.3        1 UNL1     0.0520
     16 C         -5.345472   1.760327   7.350581 C.3        1 UNL1     0.1322
     17 O         -4.418742   1.546391   6.263165 O.3        1 UNL1     -0.4828
     18 C         -6.616091   2.519642   6.961102 C.ar        1 UNL1     -0.0067
     19 C         -6.82949   3.818234   7.467397 C.ar        1 UNL1     -0.0516
     20 C         -8.002642   4.521648   7.169263 C.ar        1 UNL1     -0.0198
     21 C         -8.971111   3.935891   6.373786 C.ar        1 UNL1     0.1169
     22 C         -8.775045   2.671774   5.83304 C.ar        1 UNL1     -0.0198
     23 C         -7.593847   1.975502   6.11594 C.ar        1 UNL1     -0.0516
     24 O         -10.117164   4.63618   6.135966 O.3        1 UNL1     -0.5068
     25 O         -7.065485   -1.321606   7.494205 O.2        1 UNL1     -0.2917
     26 O         -6.797551   -2.500197   5.084295 O.3        1 UNL1     -0.5058
     27 O         -0.595656   0.06067   2.488262 O.3        1 UNL1     -0.3648
     28 O         0.202452   -2.010582   -0.356931 O.3        1 UNL1     -0.3841
     29 O         -2.367291   0.471884   -0.647845 O.3        1 UNL1     -0.3863
     30 O         -2.624672   -3.17471   -0.278775 O.3        1 UNL1     -0.3829
     31 H         0.230392   -1.698563   2.040228 H        1 UNL1     0.0937
     32 H         0.0   0.0   0.0 H        1 UNL1     0.0671
     33 H         -1.731625   -1.214002   -1.562971 H        1 UNL1     0.0649
     34 H         -3.934522   -1.596154   -0.345022 H        1 UNL1     0.0683
     35 H         -3.670628   -2.5333   1.905837 H        1 UNL1     0.1085
     36 H         -5.46488   -2.340006   2.915048 H        1 UNL1     0.0691
     37 H         -3.340953   1.267751   3.965393 H        1 UNL1     0.0691
     38 H         -4.683813   0.030442   8.48628 H        1 UNL1     0.0385
     39 H         -6.303811   0.598582   8.935016 H        1 UNL1     0.0385
     40 H         -4.809595   2.425511   8.041151 H        1 UNL1     0.0789
     41 H         -6.088611   4.296364   8.101542 H        1 UNL1     0.0623
     42 H         -8.16077   5.517655   7.575437 H        1 UNL1     0.0654
     43 H         -9.5203   2.209741   5.19662 H        1 UNL1     0.0654
     44 H         -7.469322   0.994328   5.668016 H        1 UNL1     0.0623
     45 H         -10.50814   4.883568   6.989577 H        1 UNL1     0.2921
     46 H         -7.654423   -2.261346   4.696825 H        1 UNL1     0.2922
     47 H         0.161447   0.590598   2.202201 H        1 UNL1     0.2126
     48 H         0.790266   -2.338037   0.350868 H        1 UNL1     0.2101
     49 H         -3.015205   0.658312   0.050185 H        1 UNL1     0.2100
     50 H         -1.724382   -3.368676   0.055241 H        1 UNL1     0.2102
@<TRIPOS>BOND
     1     1     2    1
     2     1     6    1
     3     2     3    1
     4     3     4    1
     5     3    29    1
     6     3    33    1
     7     4     5    1
     8     5     6    1
     9     5     7    1
    10     5    35    1
    11     7     8    1
    12     8     9   ar
    13     8    13   ar
    14     9    10   ar
    15     9    36    1
    16    10    11   ar
    17    10    26    1
    18    11    12   ar
    19    11    14    1
    20    12    13   ar
    21    12    17    1
    22    13    37    1
    23    14    15    1
    24    14    25    2
    25    15    16    1
    26    15    38    1
    27    15    39    1
    28    16    17    1
    29    16    18    1
    30    16    40    1
    31    18    19   ar
    32    18    23   ar
    33    19    20   ar
    34    19    41    1
    35    20    21   ar
    36    20    42    1
    37    21    22   ar
    38    21    24    1
    39    22    23   ar
    40    22    43    1
    41    23    44    1
    42    24    45    1
    43    26    46    1
    44    27    47    1
    45    28    48    1
    46    29    49    1
    47    30    50    1
    48     1    31    1
    49     1    27    1
    50     2    32    1
    51     2    28    1
    52     4    34    1
    53     4    30    1
