@<TRIPOS>MOLECULE
*****
 50 53 0 0 0
SMALL
GASTEIGER

@<TRIPOS>ATOM
     1 C         -0.338633   0.643059   -2.059759 C.3        1 UNL1     0.1889
     2 C         0.578061   0.436161   -0.824119 C.3        1 UNL1     0.1342
     3 C         1.27935   1.709018   -0.325628 C.3        1 UNL1     0.1174
     4 C         1.660485   2.660609   -1.462434 C.3        1 UNL1     0.1456
     5 C         0.511366   2.872723   -2.464879 C.3        1 UNL1     0.2326
     6 O         0.093179   1.618017   -2.997517 O.3        1 UNL1     -0.3076
     7 O         -0.575531   3.652742   -1.934271 O.3        1 UNL1     -0.4605
     8 C         -1.791183   3.002009   -1.823526 C.ar        1 UNL1     0.1310
     9 C         -2.061152   1.706496   -2.277469 C.ar        1 UNL1     0.0226
     10 C         -3.323434   1.12679   -2.102863 C.ar        1 UNL1     0.1343
     11 C         -4.340381   1.820373   -1.448185 C.ar        1 UNL1     0.1007
     12 C         -4.09518   3.130034   -1.026937 C.ar        1 UNL1     0.1389
     13 C         -2.826678   3.713674   -1.204977 C.ar        1 UNL1     0.0229
     14 C         -5.666333   1.225168   -1.162291 C.2        1 UNL1     0.1740
     15 C         -6.556398   2.026409   -0.25822 C.3        1 UNL1     0.0520
     16 C         -6.420566   3.497001   -0.628174 C.3        1 UNL1     0.1322
     17 O         -5.055339   3.941834   -0.468958 O.3        1 UNL1     -0.4828
     18 C         -7.050891   3.853934   -1.976511 C.ar        1 UNL1     -0.0067
     19 C         -7.692107   5.099947   -2.13306 C.ar        1 UNL1     -0.0516
     20 C         -8.319798   5.438442   -3.337795 C.ar        1 UNL1     -0.0198
     21 C         -8.319605   4.538679   -4.388629 C.ar        1 UNL1     0.1169
     22 C         -7.667735   3.317507   -4.276186 C.ar        1 UNL1     -0.0198
     23 C         -7.024098   2.986293   -3.077818 C.ar        1 UNL1     -0.0516
     24 O         -8.973595   4.887765   -5.533547 O.3        1 UNL1     -0.5068
     25 O         -6.00887   0.114698   -1.559797 O.2        1 UNL1     -0.2917
     26 O         -3.522097   -0.139807   -2.569606 O.3        1 UNL1     -0.5058
     27 O         -1.707934   0.80704   -1.726725 O.3        1 UNL1     -0.3648
     28 O         1.605312   -0.510745   -1.171725 O.3        1 UNL1     -0.3841
     29 O         0.508009   2.346473   0.694576 O.3        1 UNL1     -0.3863
     30 O         2.799299   2.12247   -2.168975 O.3        1 UNL1     -0.3829
     31 H         -0.309989   -0.291548   -2.630519 H        1 UNL1     0.0937
     32 H         0.0   0.0   0.0 H        1 UNL1     0.0671
     33 H         2.216031   1.40636   0.162988 H        1 UNL1     0.0649
     34 H         1.966222   3.62954   -1.052437 H        1 UNL1     0.0683
     35 H         0.977469   3.429118   -3.28771 H        1 UNL1     0.1085
     36 H         -1.296705   1.094904   -2.744049 H        1 UNL1     0.0691
     37 H         -2.661693   4.735168   -0.869087 H        1 UNL1     0.0691
     38 H         -6.230432   1.846528   0.771788 H        1 UNL1     0.0385
     39 H         -7.586439   1.667637   -0.358604 H        1 UNL1     0.0385
     40 H         -6.985466   4.072015   0.117994 H        1 UNL1     0.0789
     41 H         -7.714083   5.819869   -1.320114 H        1 UNL1     0.0623
     42 H         -8.821123   6.397503   -3.442137 H        1 UNL1     0.0654
     43 H         -7.648532   2.611651   -5.097958 H        1 UNL1     0.0654
     44 H         -6.515665   2.028211   -3.028618 H        1 UNL1     0.0623
     45 H         -8.700955   5.786264   -5.780697 H        1 UNL1     0.2921
     46 H         -2.753043   -0.6895   -2.350961 H        1 UNL1     0.2922
     47 H         -2.067396   1.591252   -2.164514 H        1 UNL1     0.2126
     48 H         2.374806   -0.309183   -0.605171 H        1 UNL1     0.2101
     49 H         0.848358   3.24098   0.855244 H        1 UNL1     0.2100
     50 H         2.471325   1.451112   -2.802555 H        1 UNL1     0.2102
@<TRIPOS>BOND
     1     1     2    1
     2     1     6    1
     3     2     3    1
     4     3     4    1
     5     3    29    1
     6     3    33    1
     7     4     5    1
     8     5     6    1
     9     5     7    1
    10     5    35    1
    11     7     8    1
    12     8     9   ar
    13     8    13   ar
    14     9    10   ar
    15     9    36    1
    16    10    11   ar
    17    10    26    1
    18    11    12   ar
    19    11    14    1
    20    12    13   ar
    21    12    17    1
    22    13    37    1
    23    14    15    1
    24    14    25    2
    25    15    16    1
    26    15    38    1
    27    15    39    1
    28    16    17    1
    29    16    18    1
    30    16    40    1
    31    18    19   ar
    32    18    23   ar
    33    19    20   ar
    34    19    41    1
    35    20    21   ar
    36    20    42    1
    37    21    22   ar
    38    21    24    1
    39    22    23   ar
    40    22    43    1
    41    23    44    1
    42    24    45    1
    43    26    46    1
    44    27    47    1
    45    28    48    1
    46    29    49    1
    47    30    50    1
    48     1    31    1
    49     1    27    1
    50     2    32    1
    51     2    28    1
    52     4    34    1
    53     4    30    1
