@<TRIPOS>MOLECULE
*****
 50 53 0 0 0
SMALL
GASTEIGER

@<TRIPOS>ATOM
     1 C         0.988669   1.945067   -0.100262 C.3        1 UNL1     0.1889
     2 C         0.834157   0.517523   0.48981 C.3        1 UNL1     0.1342
     3 C         0.628139   0.471528   2.01162 C.3        1 UNL1     0.1174
     4 C         1.39898   1.569779   2.748348 C.3        1 UNL1     0.1456
     5 C         1.235324   2.950637   2.087432 C.3        1 UNL1     0.2326
     6 O         1.652899   2.890215   0.725504 O.3        1 UNL1     -0.3076
     7 O         -0.079405   3.512594   2.251787 O.3        1 UNL1     -0.4605
     8 C         -0.138898   4.740421   2.886161 C.ar        1 UNL1     0.1310
     9 C         0.907822   5.336389   3.597849 C.ar        1 UNL1     0.0226
     10 C         0.754575   6.594546   4.192374 C.ar        1 UNL1     0.1343
     11 C         -0.44259   7.298453   4.06929 C.ar        1 UNL1     0.1007
     12 C         -1.508523   6.695825   3.395932 C.ar        1 UNL1     0.1389
     13 C         -1.355042   5.429603   2.800484 C.ar        1 UNL1     0.0229
     14 C         -0.631332   8.666275   4.605568 C.2        1 UNL1     0.1740
     15 C         -1.897052   9.357325   4.1909 C.3        1 UNL1     0.0520
     16 C         -3.031092   8.34182   4.216653 C.3        1 UNL1     0.1322
     17 O         -2.763787   7.251469   3.307393 O.3        1 UNL1     -0.4828
     18 C         -3.436748   7.906806   5.626947 C.ar        1 UNL1     -0.0067
     19 C         -2.598967   7.033013   6.350012 C.ar        1 UNL1     -0.0516
     20 C         -2.963059   6.578193   7.623016 C.ar        1 UNL1     -0.0198
     21 C         -4.163087   6.983123   8.179605 C.ar        1 UNL1     0.1169
     22 C         -4.9936   7.869467   7.506194 C.ar        1 UNL1     -0.0198
     23 C         -4.621063   8.338988   6.240958 C.ar        1 UNL1     -0.0516
     24 O         -4.501887   6.489641   9.405203 O.3        1 UNL1     -0.5068
     25 O         0.212417   9.250273   5.280489 O.2        1 UNL1     -0.2917
     26 O         1.813691   7.119823   4.873508 O.3        1 UNL1     -0.5058
     27 O         -0.217008   2.470415   -0.63237 O.3        1 UNL1     -0.3648
     28 O         2.029703   -0.229078   0.196614 O.3        1 UNL1     -0.3841
     29 O         -0.763838   0.460398   2.334744 O.3        1 UNL1     -0.3863
     30 O         2.802361   1.229652   2.771306 O.3        1 UNL1     -0.3829
     31 H         1.649936   1.854607   -0.968952 H        1 UNL1     0.0937
     32 H         0.0   0.0   0.0 H        1 UNL1     0.0671
     33 H         1.019502   -0.489279   2.374116 H        1 UNL1     0.0649
     34 H         1.065661   1.625862   3.790535 H        1 UNL1     0.0683
     35 H         1.959328   3.583988   2.615225 H        1 UNL1     0.1085
     36 H         1.880976   4.865221   3.682058 H        1 UNL1     0.0691
     37 H         -2.200526   4.98168   2.282783 H        1 UNL1     0.0691
     38 H         -1.743255   9.752094   3.180934 H        1 UNL1     0.0385
     39 H         -2.081994   10.201673   4.863693 H        1 UNL1     0.0385
     40 H         -3.918239   8.836615   3.79872 H        1 UNL1     0.0789
     41 H         -1.656151   6.693351   5.931229 H        1 UNL1     0.0623
     42 H         -2.314075   5.895212   8.165572 H        1 UNL1     0.0654
     43 H         -5.928459   8.204835   7.93918 H        1 UNL1     0.0654
     44 H         -5.288969   9.038749   5.747925 H        1 UNL1     0.0623
     45 H         -5.231224   5.858978   9.290969 H        1 UNL1     0.2921
     46 H         1.607939   8.029905   5.139645 H        1 UNL1     0.2922
     47 H         -0.583126   1.865569   -1.292657 H        1 UNL1     0.2126
     48 H         2.66973   -0.021487   0.90443 H        1 UNL1     0.2101
     49 H         -0.880068   0.327   3.28894 H        1 UNL1     0.2100
     50 H         2.91435   0.450918   3.355039 H        1 UNL1     0.2102
@<TRIPOS>BOND
     1     1     2    1
     2     1     6    1
     3     2     3    1
     4     3     4    1
     5     3    29    1
     6     3    33    1
     7     4     5    1
     8     5     6    1
     9     5     7    1
    10     5    35    1
    11     7     8    1
    12     8     9   ar
    13     8    13   ar
    14     9    10   ar
    15     9    36    1
    16    10    11   ar
    17    10    26    1
    18    11    12   ar
    19    11    14    1
    20    12    13   ar
    21    12    17    1
    22    13    37    1
    23    14    15    1
    24    14    25    2
    25    15    16    1
    26    15    38    1
    27    15    39    1
    28    16    17    1
    29    16    18    1
    30    16    40    1
    31    18    19   ar
    32    18    23   ar
    33    19    20   ar
    34    19    41    1
    35    20    21   ar
    36    20    42    1
    37    21    22   ar
    38    21    24    1
    39    22    23   ar
    40    22    43    1
    41    23    44    1
    42    24    45    1
    43    26    46    1
    44    27    47    1
    45    28    48    1
    46    29    49    1
    47    30    50    1
    48     1    31    1
    49     1    27    1
    50     2    32    1
    51     2    28    1
    52     4    34    1
    53     4    30    1
