@<TRIPOS>MOLECULE
*****
 50 53 0 0 0
SMALL
GASTEIGER

@<TRIPOS>ATOM
     1 C         -0.335236   -1.330369   1.69957 C.3        1 UNL1     0.1889
     2 C         -0.464016   -0.975017   0.193887 C.3        1 UNL1     0.1342
     3 C         -1.904413   -0.959603   -0.34042 C.3        1 UNL1     0.1174
     4 C         -2.792761   -2.018561   0.317276 C.3        1 UNL1     0.1456
     5 C         -2.642382   -2.04639   1.84926 C.3        1 UNL1     0.2326
     6 O         -1.278077   -2.266959   2.199816 O.3        1 UNL1     -0.3076
     7 O         -3.216161   -0.899481   2.502481 O.3        1 UNL1     -0.4605
     8 C         -3.727415   -1.116142   3.769448 C.ar        1 UNL1     0.1310
     9 C         -3.740433   -2.344553   4.438878 C.ar        1 UNL1     0.0226
     10 C         -4.266882   -2.459074   5.731023 C.ar        1 UNL1     0.1343
     11 C         -4.771925   -1.341979   6.395005 C.ar        1 UNL1     0.1007
     12 C         -4.801822   -0.118148   5.721114 C.ar        1 UNL1     0.1389
     13 C         -4.274837   -0.003801   4.420868 C.ar        1 UNL1     0.0229
     14 C         -5.26327   -1.389159   7.791611 C.2        1 UNL1     0.1740
     15 C         -5.559646   -0.059604   8.42089 C.3        1 UNL1     0.0520
     16 C         -6.234402   0.825445   7.381972 C.3        1 UNL1     0.1322
     17 O         -5.373824   1.021022   6.238195 O.3        1 UNL1     -0.4828
     18 C         -7.660804   0.391553   7.035794 C.ar        1 UNL1     -0.0067
     19 C         -8.04056   0.276516   5.682736 C.ar        1 UNL1     -0.0516
     20 C         -9.350171   -0.071928   5.331357 C.ar        1 UNL1     -0.0198
     21 C         -10.2891   -0.300176   6.321378 C.ar        1 UNL1     0.1169
     22 C         -9.936881   -0.227361   7.662825 C.ar        1 UNL1     -0.0198
     23 C         -8.622656   0.103017   8.01456 C.ar        1 UNL1     -0.0516
     24 O         -11.564063   -0.600319   5.940873 O.3        1 UNL1     -0.5068
     25 O         -5.354458   -2.427303   8.441555 O.2        1 UNL1     -0.2917
     26 O         -4.250698   -3.685765   6.328142 O.3        1 UNL1     -0.5058
     27 O         -0.228929   -0.193548   2.541665 O.3        1 UNL1     -0.3648
     28 O         0.265683   -1.953379   -0.56969 O.3        1 UNL1     -0.3841
     29 O         -2.459998   0.354712   -0.262741 O.3        1 UNL1     -0.3863
     30 O         -2.446701   -3.319086   -0.206714 O.3        1 UNL1     -0.3829
     31 H         0.624588   -1.844811   1.818595 H        1 UNL1     0.0937
     32 H         0.0   0.0   0.0 H        1 UNL1     0.0671
     33 H         -1.866914   -1.197613   -1.412644 H        1 UNL1     0.0649
     34 H         -3.842422   -1.838312   0.060132 H        1 UNL1     0.0683
     35 H         -3.198642   -2.941899   2.153429 H        1 UNL1     0.1085
     36 H         -3.311948   -3.238336   3.998794 H        1 UNL1     0.0691
     37 H         -4.311019   0.959931   3.917474 H        1 UNL1     0.0691
     38 H         -4.607543   0.371366   8.748446 H        1 UNL1     0.0385
     39 H         -6.187838   -0.212992   9.304985 H        1 UNL1     0.0385
     40 H         -6.334292   1.825744   7.824628 H        1 UNL1     0.0789
     41 H         -7.324485   0.459527   4.886876 H        1 UNL1     0.0623
     42 H         -9.633766   -0.145799   4.284395 H        1 UNL1     0.0654
     43 H         -10.660437   -0.41886   8.446218 H        1 UNL1     0.0654
     44 H         -8.379822   0.140582   9.072135 H        1 UNL1     0.0623
     45 H         -11.914696   0.145742   5.427877 H        1 UNL1     0.2921
     46 H         -3.776315   -3.628294   7.172577 H        1 UNL1     0.2922
     47 H         0.515071   0.359519   2.265186 H        1 UNL1     0.2126
     48 H         1.198478   -1.889327   -0.287692 H        1 UNL1     0.2101
     49 H         -2.019907   0.937345   -0.902 H        1 UNL1     0.2100
     50 H         -2.679236   -3.332386   -1.158272 H        1 UNL1     0.2102
@<TRIPOS>BOND
     1     1     2    1
     2     1     6    1
     3     2     3    1
     4     3     4    1
     5     3    29    1
     6     3    33    1
     7     4     5    1
     8     5     6    1
     9     5     7    1
    10     5    35    1
    11     7     8    1
    12     8     9   ar
    13     8    13   ar
    14     9    10   ar
    15     9    36    1
    16    10    11   ar
    17    10    26    1
    18    11    12   ar
    19    11    14    1
    20    12    13   ar
    21    12    17    1
    22    13    37    1
    23    14    15    1
    24    14    25    2
    25    15    16    1
    26    15    38    1
    27    15    39    1
    28    16    17    1
    29    16    18    1
    30    16    40    1
    31    18    19   ar
    32    18    23   ar
    33    19    20   ar
    34    19    41    1
    35    20    21   ar
    36    20    42    1
    37    21    22   ar
    38    21    24    1
    39    22    23   ar
    40    22    43    1
    41    23    44    1
    42    24    45    1
    43    26    46    1
    44    27    47    1
    45    28    48    1
    46    29    49    1
    47    30    50    1
    48     1    31    1
    49     1    27    1
    50     2    32    1
    51     2    28    1
    52     4    34    1
    53     4    30    1
