@<TRIPOS>MOLECULE
*****
 50 53 0 0 0
SMALL
GASTEIGER

@<TRIPOS>ATOM
     1 C         1.039337   -1.757943   -0.774739 C.3        1 UNL1     0.1889
     2 C         -0.222911   -0.86477   -0.637216 C.3        1 UNL1     0.1342
     3 C         -1.462381   -1.586644   -0.086691 C.3        1 UNL1     0.1174
     4 C         -1.551926   -3.044741   -0.543913 C.3        1 UNL1     0.1456
     5 C         -0.214637   -3.793052   -0.395405 C.3        1 UNL1     0.2326
     6 O         0.805701   -3.114304   -1.124157 O.3        1 UNL1     -0.3076
     7 O         0.146477   -4.055533   0.972813 O.3        1 UNL1     -0.4605
     8 C         0.87358   -5.210787   1.196948 C.ar        1 UNL1     0.1310
     9 C         0.586288   -6.467407   0.653193 C.ar        1 UNL1     0.0226
     10 C         1.39522   -7.576667   0.927187 C.ar        1 UNL1     0.1343
     11 C         2.525822   -7.45088   1.733263 C.ar        1 UNL1     0.1007
     12 C         2.799771   -6.21023   2.315092 C.ar        1 UNL1     0.1389
     13 C         1.984741   -5.095627   2.041566 C.ar        1 UNL1     0.0229
     14 C         3.462015   -8.570233   1.987713 C.2        1 UNL1     0.1740
     15 C         4.737075   -8.203663   2.68871 C.3        1 UNL1     0.0520
     16 C         4.414089   -7.189061   3.776929 C.3        1 UNL1     0.1322
     17 O         3.823341   -5.999054   3.209506 O.3        1 UNL1     -0.4828
     18 C         3.641725   -7.778711   4.959507 C.ar        1 UNL1     -0.0067
     19 C         2.490886   -7.116649   5.43433 C.ar        1 UNL1     -0.0516
     20 C         1.788594   -7.60303   6.543467 C.ar        1 UNL1     -0.0198
     21 C         2.230214   -8.743815   7.189537 C.ar        1 UNL1     0.1169
     22 C         3.34076   -9.436575   6.725197 C.ar        1 UNL1     -0.0198
     23 C         4.032501   -8.960742   5.604869 C.ar        1 UNL1     -0.0516
     24 O         1.542735   -9.166381   8.289178 O.3        1 UNL1     -0.5068
     25 O         3.269167   -9.716449   1.590871 O.2        1 UNL1     -0.2917
     26 O         1.059612   -8.774425   0.366539 O.3        1 UNL1     -0.5058
     27 O         1.933295   -1.645945   0.3212 O.3        1 UNL1     -0.3648
     28 O         -0.566331   -0.356777   -1.939795 O.3        1 UNL1     -0.3841
     29 O         -1.542177   -1.445967   1.33316 O.3        1 UNL1     -0.3863
     30 O         -1.953388   -3.082565   -1.930667 O.3        1 UNL1     -0.3829
     31 H         1.607044   -1.368179   -1.626721 H        1 UNL1     0.0937
     32 H         0.0   0.0   0.0 H        1 UNL1     0.0671
     33 H         -2.351318   -1.07477   -0.481018 H        1 UNL1     0.0649
     34 H         -2.325305   -3.569227   0.028102 H        1 UNL1     0.0683
     35 H         -0.388436   -4.749026   -0.905098 H        1 UNL1     0.1085
     36 H         -0.245923   -6.618249   -0.025623 H        1 UNL1     0.0691
     37 H         2.218842   -4.141021   2.507846 H        1 UNL1     0.0691
     38 H         5.415547   -7.778703   1.941306 H        1 UNL1     0.0385
     39 H         5.19837   -9.111327   3.092606 H        1 UNL1     0.0385
     40 H         5.370559   -6.847907   4.195615 H        1 UNL1     0.0789
     41 H         2.129201   -6.214178   4.950203 H        1 UNL1     0.0623
     42 H         0.909494   -7.076892   6.907297 H        1 UNL1     0.0654
     43 H         3.686426   -10.339355   7.214496 H        1 UNL1     0.0654
     44 H         4.889588   -9.532948   5.26307 H        1 UNL1     0.0623
     45 H         1.578407   -8.466248   8.960936 H        1 UNL1     0.2921
     46 H         1.807731   -9.109638   -0.152462 H        1 UNL1     0.2922
     47 H         2.189014   -0.722118   0.451627 H        1 UNL1     0.2126
     48 H         0.190846   0.183123   -2.237996 H        1 UNL1     0.2101
     49 H         -1.747646   -0.525672   1.562577 H        1 UNL1     0.2100
     50 H         -2.86545   -2.729991   -1.990237 H        1 UNL1     0.2102
@<TRIPOS>BOND
     1     1     2    1
     2     1     6    1
     3     2     3    1
     4     3     4    1
     5     3    29    1
     6     3    33    1
     7     4     5    1
     8     5     6    1
     9     5     7    1
    10     5    35    1
    11     7     8    1
    12     8     9   ar
    13     8    13   ar
    14     9    10   ar
    15     9    36    1
    16    10    11   ar
    17    10    26    1
    18    11    12   ar
    19    11    14    1
    20    12    13   ar
    21    12    17    1
    22    13    37    1
    23    14    15    1
    24    14    25    2
    25    15    16    1
    26    15    38    1
    27    15    39    1
    28    16    17    1
    29    16    18    1
    30    16    40    1
    31    18    19   ar
    32    18    23   ar
    33    19    20   ar
    34    19    41    1
    35    20    21   ar
    36    20    42    1
    37    21    22   ar
    38    21    24    1
    39    22    23   ar
    40    22    43    1
    41    23    44    1
    42    24    45    1
    43    26    46    1
    44    27    47    1
    45    28    48    1
    46    29    49    1
    47    30    50    1
    48     1    31    1
    49     1    27    1
    50     2    32    1
    51     2    28    1
    52     4    34    1
    53     4    30    1
