@<TRIPOS>MOLECULE
*****
 50 53 0 0 0
SMALL
GASTEIGER

@<TRIPOS>ATOM
     1 C         -0.332644   -1.330364   1.700084 C.3        1 UNL1     0.1889
     2 C         -0.462257   -0.975772   0.194293 C.3        1 UNL1     0.1342
     3 C         -1.90275   -0.963106   -0.339826 C.3        1 UNL1     0.1174
     4 C         -2.789126   -2.023409   0.318362 C.3        1 UNL1     0.1456
     5 C         -2.638493   -2.050432   1.850336 C.3        1 UNL1     0.2326
     6 O         -1.273751   -2.268451   2.200786 O.3        1 UNL1     -0.3076
     7 O         -3.214222   -0.904314   2.50323 O.3        1 UNL1     -0.4605
     8 C         -3.724921   -1.121437   3.770342 C.ar        1 UNL1     0.1310
     9 C         -4.541283   -2.19509   4.14199 C.ar        1 UNL1     0.0226
     10 C         -4.995288   -2.337189   5.458649 C.ar        1 UNL1     0.1343
     11 C         -4.624027   -1.421123   6.441923 C.ar        1 UNL1     0.1007
     12 C         -3.842869   -0.322384   6.074023 C.ar        1 UNL1     0.1389
     13 C         -3.388676   -0.178293   4.749494 C.ar        1 UNL1     0.0229
     14 C         -5.005816   -1.568779   7.865506 C.2        1 UNL1     0.1740
     15 C         -4.337917   -0.621504   8.818465 C.3        1 UNL1     0.0520
     16 C         -4.268466   0.751287   8.163806 C.3        1 UNL1     0.1322
     17 O         -3.508867   0.696131   6.936192 O.3        1 UNL1     -0.4828
     18 C         -5.627804   1.443479   8.038123 C.ar        1 UNL1     -0.0067
     19 C         -5.998602   2.023198   6.807412 C.ar        1 UNL1     -0.0516
     20 C         -7.213869   2.704859   6.671667 C.ar        1 UNL1     -0.0198
     21 C         -8.061816   2.819821   7.758679 C.ar        1 UNL1     0.1169
     22 C         -7.739681   2.230851   8.974484 C.ar        1 UNL1     -0.0198
     23 C         -6.532899   1.533292   9.105424 C.ar        1 UNL1     -0.0516
     24 O         -9.219364   3.523384   7.599045 O.3        1 UNL1     -0.5068
     25 O         -5.754695   -2.451177   8.276649 O.2        1 UNL1     -0.2917
     26 O         -5.789547   -3.406082   5.755643 O.3        1 UNL1     -0.5058
     27 O         -0.228245   -0.193059   2.541764 O.3        1 UNL1     -0.3648
     28 O         0.269079   -1.953105   -0.569038 O.3        1 UNL1     -0.3841
     29 O         -2.46066   0.350247   -0.262535 O.3        1 UNL1     -0.3863
     30 O         -2.440825   -3.323502   -0.205216 O.3        1 UNL1     -0.3829
     31 H         0.628109   -1.843056   1.819161 H        1 UNL1     0.0937
     32 H         0.0   0.0   0.0 H        1 UNL1     0.0671
     33 H         -1.864971   -1.201427   -1.411971 H        1 UNL1     0.0649
     34 H         -3.83914   -1.845118   0.061295 H        1 UNL1     0.0683
     35 H         -3.19312   -2.94682   2.154895 H        1 UNL1     0.1085
     36 H         -4.81895   -2.971011   3.43703 H        1 UNL1     0.0691
     37 H         -2.782659   0.686623   4.488426 H        1 UNL1     0.0691
     38 H         -3.335632   -1.011618   9.025255 H        1 UNL1     0.0385
     39 H         -4.898843   -0.603744   9.759117 H        1 UNL1     0.0385
     40 H         -3.674248   1.395829   8.825615 H        1 UNL1     0.0789
     41 H         -5.346302   1.954692   5.941697 H        1 UNL1     0.0623
     42 H         -7.48308   3.157819   5.720686 H        1 UNL1     0.0654
     43 H         -8.403297   2.30189   9.827993 H        1 UNL1     0.0654
     44 H         -6.318193   1.076622   10.066777 H        1 UNL1     0.0623
     45 H         -8.992633   4.436985   7.361049 H        1 UNL1     0.2921
     46 H         -5.386803   -3.918612   6.474337 H        1 UNL1     0.2922
     47 H         0.512192   0.363352   2.262442 H        1 UNL1     0.2126
     48 H         1.204973   -1.873661   -0.3016 H        1 UNL1     0.2101
     49 H         -2.027414   0.931344   -0.907839 H        1 UNL1     0.2100
     50 H         -2.678682   -3.339482   -1.155417 H        1 UNL1     0.2102
@<TRIPOS>BOND
     1     1     2    1
     2     1     6    1
     3     2     3    1
     4     3     4    1
     5     3    29    1
     6     3    33    1
     7     4     5    1
     8     5     6    1
     9     5     7    1
    10     5    35    1
    11     7     8    1
    12     8     9   ar
    13     8    13   ar
    14     9    10   ar
    15     9    36    1
    16    10    11   ar
    17    10    26    1
    18    11    12   ar
    19    11    14    1
    20    12    13   ar
    21    12    17    1
    22    13    37    1
    23    14    15    1
    24    14    25    2
    25    15    16    1
    26    15    38    1
    27    15    39    1
    28    16    17    1
    29    16    18    1
    30    16    40    1
    31    18    19   ar
    32    18    23   ar
    33    19    20   ar
    34    19    41    1
    35    20    21   ar
    36    20    42    1
    37    21    22   ar
    38    21    24    1
    39    22    23   ar
    40    22    43    1
    41    23    44    1
    42    24    45    1
    43    26    46    1
    44    27    47    1
    45    28    48    1
    46    29    49    1
    47    30    50    1
    48     1    31    1
    49     1    27    1
    50     2    32    1
    51     2    28    1
    52     4    34    1
    53     4    30    1
