@<TRIPOS>MOLECULE
*****
 50 53 0 0 0
SMALL
GASTEIGER

@<TRIPOS>ATOM
     1 C         0.345538   0.168382   2.150129 C.3        1 UNL1     0.1889
     2 C         -0.586045   -0.042927   0.926429 C.3        1 UNL1     0.1342
     3 C         -1.751865   0.952933   0.828493 C.3        1 UNL1     0.1174
     4 C         -2.299563   1.362079   2.198071 C.3        1 UNL1     0.1456
     5 C         -1.184225   1.725927   3.195066 C.3        1 UNL1     0.2326
     6 O         -0.28263   0.630527   3.336814 O.3        1 UNL1     -0.3076
     7 O         -0.523117   2.966833   2.887805 O.3        1 UNL1     -0.4605
     8 C         -1.342309   4.073619   2.7556 C.ar        1 UNL1     0.1310
     9 C         -1.190099   5.085058   1.801072 C.ar        1 UNL1     0.0226
     10 C         -2.084703   6.15997   1.73665 C.ar        1 UNL1     0.1343
     11 C         -3.168113   6.237185   2.610779 C.ar        1 UNL1     0.1007
     12 C         -3.307043   5.254709   3.594762 C.ar        1 UNL1     0.1389
     13 C         -2.405871   4.17539   3.661027 C.ar        1 UNL1     0.0229
     14 C         -4.191016   7.305725   2.533028 C.2        1 UNL1     0.1740
     15 C         -5.400481   7.111025   3.399535 C.3        1 UNL1     0.0520
     16 C         -4.94655   6.55662   4.742866 C.3        1 UNL1     0.1322
     17 O         -4.272904   5.289883   4.573609 O.3        1 UNL1     -0.4828
     18 C         -4.18629   7.569545   5.602351 C.ar        1 UNL1     -0.0067
     19 C         -3.462188   8.604418   4.975512 C.ar        1 UNL1     -0.0516
     20 C         -2.717586   9.519043   5.729829 C.ar        1 UNL1     -0.0198
     21 C         -2.68315   9.405309   7.108127 C.ar        1 UNL1     0.1169
     22 C         -3.412721   8.417208   7.756372 C.ar        1 UNL1     -0.0198
     23 C         -4.172227   7.513707   7.00345 C.ar        1 UNL1     -0.0516
     24 O         -1.916745   10.291089   7.806996 O.3        1 UNL1     -0.5068
     25 O         -4.117306   8.257301   1.760011 O.2        1 UNL1     -0.2917
     26 O         -1.879746   7.113949   0.782972 O.3        1 UNL1     -0.5058
     27 O         1.512569   0.917059   1.849614 O.3        1 UNL1     -0.3648
     28 O         -1.155687   -1.362526   1.009325 O.3        1 UNL1     -0.3841
     29 O         -1.39417   2.074225   0.018005 O.3        1 UNL1     -0.3863
     30 O         -3.072591   0.271304   2.744264 O.3        1 UNL1     -0.3829
     31 H         0.724285   -0.82086   2.429471 H        1 UNL1     0.0937
     32 H         0.0   0.0   -0.0 H        1 UNL1     0.0671
     33 H         -2.573147   0.456205   0.293257 H        1 UNL1     0.0649
     34 H         -2.979715   2.214142   2.089518 H        1 UNL1     0.0683
     35 H         -1.709614   1.832528   4.152396 H        1 UNL1     0.1085
     36 H         -0.401101   5.053501   1.057696 H        1 UNL1     0.0691
     37 H         -2.535269   3.424131   4.437146 H        1 UNL1     0.0691
     38 H         -6.065684   6.408203   2.886628 H        1 UNL1     0.0385
     39 H         -5.926046   8.066544   3.502215 H        1 UNL1     0.0385
     40 H         -5.851905   6.311866   5.314659 H        1 UNL1     0.0789
     41 H         -3.465713   8.709544   3.894501 H        1 UNL1     0.0623
     42 H         -2.153848   10.305426   5.234035 H        1 UNL1     0.0654
     43 H         -3.404875   8.328308   8.836162 H        1 UNL1     0.0654
     44 H         -4.738389   6.76093   7.543481 H        1 UNL1     0.0623
     45 H         -1.684882   9.88964   8.660105 H        1 UNL1     0.2921
     46 H         -1.516158   7.912523   1.197093 H        1 UNL1     0.2922
     47 H         2.172475   0.352036   1.424018 H        1 UNL1     0.2126
     48 H         -1.681741   -1.49163   0.196717 H        1 UNL1     0.2101
     49 H         -1.616346   2.89884   0.478919 H        1 UNL1     0.2100
     50 H         -3.879025   0.169783   2.19739 H        1 UNL1     0.2102
@<TRIPOS>BOND
     1     1     2    1
     2     1     6    1
     3     2     3    1
     4     3     4    1
     5     3    29    1
     6     3    33    1
     7     4     5    1
     8     5     6    1
     9     5     7    1
    10     5    35    1
    11     7     8    1
    12     8     9   ar
    13     8    13   ar
    14     9    10   ar
    15     9    36    1
    16    10    11   ar
    17    10    26    1
    18    11    12   ar
    19    11    14    1
    20    12    13   ar
    21    12    17    1
    22    13    37    1
    23    14    15    1
    24    14    25    2
    25    15    16    1
    26    15    38    1
    27    15    39    1
    28    16    17    1
    29    16    18    1
    30    16    40    1
    31    18    19   ar
    32    18    23   ar
    33    19    20   ar
    34    19    41    1
    35    20    21   ar
    36    20    42    1
    37    21    22   ar
    38    21    24    1
    39    22    23   ar
    40    22    43    1
    41    23    44    1
    42    24    45    1
    43    26    46    1
    44    27    47    1
    45    28    48    1
    46    29    49    1
    47    30    50    1
    48     1    31    1
    49     1    27    1
    50     2    32    1
    51     2    28    1
    52     4    34    1
    53     4    30    1
