@<TRIPOS>MOLECULE
*****
 50 53 0 0 0
SMALL
GASTEIGER

@<TRIPOS>ATOM
     1 C         1.826038   1.136289   -0.381099 C.3        1 UNL1     0.1889
     2 C         0.942445   -0.129356   -0.546467 C.3        1 UNL1     0.1342
     3 C         1.607373   -1.438994   -0.095709 C.3        1 UNL1     0.1174
     4 C         3.113142   -1.465059   -0.369746 C.3        1 UNL1     0.1456
     5 C         3.815376   -0.16693   0.068538 C.3        1 UNL1     0.2326
     6 O         3.219401   0.952146   -0.583651 O.3        1 UNL1     -0.3076
     7 O         3.895296   -0.012685   1.497223 O.3        1 UNL1     -0.4605
     8 C         3.653826   -1.151545   2.244362 C.ar        1 UNL1     0.1310
     9 C         2.770906   -1.238964   3.326079 C.ar        1 UNL1     0.0226
     10 C         2.581963   -2.44558   4.010389 C.ar        1 UNL1     0.1343
     11 C         3.254194   -3.600962   3.614107 C.ar        1 UNL1     0.1007
     12 C         4.169277   -3.516533   2.56136 C.ar        1 UNL1     0.1389
     13 C         4.361058   -2.302551   1.875138 C.ar        1 UNL1     0.0229
     14 C         3.029422   -4.920849   4.24777 C.2        1 UNL1     0.1740
     15 C         3.664052   -6.09047   3.554387 C.3        1 UNL1     0.0520
     16 C         5.049375   -5.674953   3.078801 C.3        1 UNL1     0.1322
     17 O         4.963957   -4.564612   2.158521 O.3        1 UNL1     -0.4828
     18 C         6.058297   -5.482197   4.213547 C.ar        1 UNL1     -0.0067
     19 C         7.331595   -4.949548   3.925083 C.ar        1 UNL1     -0.0516
     20 C         8.294271   -4.80444   4.931145 C.ar        1 UNL1     -0.0198
     21 C         7.99913   -5.194231   6.225279 C.ar        1 UNL1     0.1169
     22 C         6.742703   -5.690981   6.546945 C.ar        1 UNL1     -0.0198
     23 C         5.773613   -5.818993   5.544681 C.ar        1 UNL1     -0.0516
     24 O         8.974493   -5.073264   7.171024 O.3        1 UNL1     -0.5068
     25 O         2.30958   -5.0859   5.229132 O.2        1 UNL1     -0.2917
     26 O         1.707457   -2.463586   5.057528 O.3        1 UNL1     -0.5058
     27 O         1.561042   1.859021   0.810632 O.3        1 UNL1     -0.3648
     28 O         0.610394   -0.274948   -1.939755 O.3        1 UNL1     -0.3841
     29 O         1.28778   -1.727064   1.267012 O.3        1 UNL1     -0.3863
     30 O         3.334029   -1.657504   -1.783911 O.3        1 UNL1     -0.3829
     31 H         1.539455   1.824898   -1.183448 H        1 UNL1     0.0937
     32 H         0.0   0.0   0.0 H        1 UNL1     0.0671
     33 H         1.164   -2.258207   -0.678831 H        1 UNL1     0.0649
     34 H         3.572297   -2.316213   0.145147 H        1 UNL1     0.0683
     35 H         4.831214   -0.266853   -0.333916 H        1 UNL1     0.1085
     36 H         2.176993   -0.390345   3.64738 H        1 UNL1     0.0691
     37 H         5.080047   -2.262852   1.05968 H        1 UNL1     0.0691
     38 H         3.021952   -6.36322   2.710087 H        1 UNL1     0.0385
     39 H         3.700831   -6.940181   4.244617 H        1 UNL1     0.0385
     40 H         5.44592   -6.502272   2.474801 H        1 UNL1     0.0789
     41 H         7.590933   -4.644676   2.915406 H        1 UNL1     0.0623
     42 H         9.276569   -4.403487   4.693787 H        1 UNL1     0.0654
     43 H         6.495944   -5.985211   7.560083 H        1 UNL1     0.0654
     44 H         4.799193   -6.200874   5.833676 H        1 UNL1     0.0623
     45 H         9.808172   -5.399645   6.795296 H        1 UNL1     0.2921
     46 H         0.801203   -2.370006   4.723825 H        1 UNL1     0.2922
     47 H         0.61444   2.043368   0.886932 H        1 UNL1     0.2126
     48 H         -0.038813   0.424522   -2.14713 H        1 UNL1     0.2101
     49 H         0.812543   -2.571334   1.323155 H        1 UNL1     0.2100
     50 H         3.032239   -2.560118   -2.016126 H        1 UNL1     0.2102
@<TRIPOS>BOND
     1     1     2    1
     2     1     6    1
     3     2     3    1
     4     3     4    1
     5     3    29    1
     6     3    33    1
     7     4     5    1
     8     5     6    1
     9     5     7    1
    10     5    35    1
    11     7     8    1
    12     8     9   ar
    13     8    13   ar
    14     9    10   ar
    15     9    36    1
    16    10    11   ar
    17    10    26    1
    18    11    12   ar
    19    11    14    1
    20    12    13   ar
    21    12    17    1
    22    13    37    1
    23    14    15    1
    24    14    25    2
    25    15    16    1
    26    15    38    1
    27    15    39    1
    28    16    17    1
    29    16    18    1
    30    16    40    1
    31    18    19   ar
    32    18    23   ar
    33    19    20   ar
    34    19    41    1
    35    20    21   ar
    36    20    42    1
    37    21    22   ar
    38    21    24    1
    39    22    23   ar
    40    22    43    1
    41    23    44    1
    42    24    45    1
    43    26    46    1
    44    27    47    1
    45    28    48    1
    46    29    49    1
    47    30    50    1
    48     1    31    1
    49     1    27    1
    50     2    32    1
    51     2    28    1
    52     4    34    1
    53     4    30    1
