@<TRIPOS>MOLECULE
*****
 50 53 0 0 0
SMALL
GASTEIGER

@<TRIPOS>ATOM
     1 C         -0.358646   -1.361871   1.669576 C.3        1 UNL1     0.1889
     2 C         -0.4435   -0.989801   0.164816 C.3        1 UNL1     0.1342
     3 C         -1.863832   -1.006301   -0.420718 C.3        1 UNL1     0.1174
     4 C         -2.745427   -2.097812   0.191253 C.3        1 UNL1     0.1456
     5 C         -2.648987   -2.14228   1.727185 C.3        1 UNL1     0.2326
     6 O         -1.292455   -2.33042   2.123788 O.3        1 UNL1     -0.3076
     7 O         -3.277144   -1.020332   2.373693 O.3        1 UNL1     -0.4605
     8 C         -3.826592   -1.267822   3.618837 C.ar        1 UNL1     0.1310
     9 C         -4.627369   -2.367002   3.947256 C.ar        1 UNL1     0.0226
     10 C         -5.123888   -2.53873   5.2449 C.ar        1 UNL1     0.1343
     11 C         -4.811686   -1.627057   6.252483 C.ar        1 UNL1     0.1007
     12 C         -4.046865   -0.503754   5.926871 C.ar        1 UNL1     0.1389
     13 C         -3.549931   -0.329922   4.621395 C.ar        1 UNL1     0.0229
     14 C         -5.239703   -1.803961   7.659487 C.2        1 UNL1     0.1740
     15 C         -4.630889   -0.85309   8.647789 C.3        1 UNL1     0.0520
     16 C         -4.574063   0.529888   8.013674 C.3        1 UNL1     0.1322
     17 O         -3.770264   0.511036   6.813416 O.3        1 UNL1     -0.4828
     18 C         -5.94566   1.188752   7.848317 C.ar        1 UNL1     -0.0067
     19 C         -6.294446   1.760016   6.607261 C.ar        1 UNL1     -0.0516
     20 C         -7.521527   2.411878   6.436052 C.ar        1 UNL1     -0.0198
     21 C         -8.403383   2.505412   7.497847 C.ar        1 UNL1     0.1169
     22 C         -8.102563   1.923721   8.722584 C.ar        1 UNL1     -0.0198
     23 C         -6.883433   1.255762   8.888743 C.ar        1 UNL1     -0.0516
     24 O         -9.572624   3.180594   7.304441 O.3        1 UNL1     -0.5068
     25 O         -5.979444   -2.710783   8.032236 O.2        1 UNL1     -0.2917
     26 O         -5.900063   -3.631561   5.49957 O.3        1 UNL1     -0.5058
     27 O         -0.313856   -0.234084   2.529156 O.3        1 UNL1     -0.3648
     28 O         0.339692   -1.937548   -0.584245 O.3        1 UNL1     -0.3841
     29 O         -2.457946   0.29126   -0.346578 O.3        1 UNL1     -0.3863
     30 O         -2.345113   -3.381242   -0.336237 O.3        1 UNL1     -0.3829
     31 H         0.610183   -1.851605   1.816579 H        1 UNL1     0.0937
     32 H         0.0   0.0   0.0 H        1 UNL1     0.0671
     33 H         -1.78161   -1.228668   -1.493803 H        1 UNL1     0.0649
     34 H         -3.789846   -1.942688   -0.101196 H        1 UNL1     0.0683
     35 H         -3.190761   -3.056608   1.999882 H        1 UNL1     0.1085
     36 H         -4.859579   -3.140017   3.222931 H        1 UNL1     0.0691
     37 H         -2.957777   0.553712   4.393277 H        1 UNL1     0.0691
     38 H         -3.62674   -1.220248   8.885289 H        1 UNL1     0.0385
     39 H         -5.225065   -0.862597   9.567921 H        1 UNL1     0.0385
     40 H         -4.020657   1.180266   8.704522 H        1 UNL1     0.0789
     41 H         -5.615688   1.708006   5.760957 H        1 UNL1     0.0623
     42 H         -7.773864   2.858725   5.477582 H        1 UNL1     0.0654
     43 H         -8.792336   1.977994   9.556358 H        1 UNL1     0.0654
     44 H         -6.685774   0.803868   9.855991 H        1 UNL1     0.0623
     45 H         -9.361309   4.097476   7.064881 H        1 UNL1     0.2921
     46 H         -5.509081   -4.14419   6.224661 H        1 UNL1     0.2922
     47 H         0.423946   0.342688   2.286581 H        1 UNL1     0.2126
     48 H         1.259726   -1.851996   -0.268096 H        1 UNL1     0.2101
     49 H         -2.011528   0.894281   -0.962103 H        1 UNL1     0.2100
     50 H         -2.543159   -3.387974   -1.295635 H        1 UNL1     0.2102
@<TRIPOS>BOND
     1     1     2    1
     2     1     6    1
     3     2     3    1
     4     3     4    1
     5     3    29    1
     6     3    33    1
     7     4     5    1
     8     5     6    1
     9     5     7    1
    10     5    35    1
    11     7     8    1
    12     8     9   ar
    13     8    13   ar
    14     9    10   ar
    15     9    36    1
    16    10    11   ar
    17    10    26    1
    18    11    12   ar
    19    11    14    1
    20    12    13   ar
    21    12    17    1
    22    13    37    1
    23    14    15    1
    24    14    25    2
    25    15    16    1
    26    15    38    1
    27    15    39    1
    28    16    17    1
    29    16    18    1
    30    16    40    1
    31    18    19   ar
    32    18    23   ar
    33    19    20   ar
    34    19    41    1
    35    20    21   ar
    36    20    42    1
    37    21    22   ar
    38    21    24    1
    39    22    23   ar
    40    22    43    1
    41    23    44    1
    42    24    45    1
    43    26    46    1
    44    27    47    1
    45    28    48    1
    46    29    49    1
    47    30    50    1
    48     1    31    1
    49     1    27    1
    50     2    32    1
    51     2    28    1
    52     4    34    1
    53     4    30    1
