@<TRIPOS>MOLECULE
*****
 50 53 0 0 0
SMALL
GASTEIGER

@<TRIPOS>ATOM
     1 C         -0.315782   -1.309613   1.719302 C.3        1 UNL1     0.1889
     2 C         -0.470141   -0.96811   0.21282 C.3        1 UNL1     0.1342
     3 C         -1.920414   -0.943013   -0.293682 C.3        1 UNL1     0.1174
     4 C         -2.806633   -1.985948   0.391897 C.3        1 UNL1     0.1456
     5 C         -2.626809   -1.999925   1.920894 C.3        1 UNL1     0.2326
     6 O         -1.258285   -2.231209   2.247265 O.3        1 UNL1     -0.3076
     7 O         -3.175989   -0.84056   2.573271 O.3        1 UNL1     -0.4605
     8 C         -3.664295   -1.038995   3.852219 C.ar        1 UNL1     0.1310
     9 C         -4.485899   -2.099003   4.250525 C.ar        1 UNL1     0.0226
     10 C         -4.915666   -2.222618   5.577146 C.ar        1 UNL1     0.1343
     11 C         -4.514358   -1.301441   6.543699 C.ar        1 UNL1     0.1007
     12 C         -3.727577   -0.215889   6.149573 C.ar        1 UNL1     0.1389
     13 C         -3.297754   -0.090362   4.81506 C.ar        1 UNL1     0.0229
     14 C         -4.869897   -1.430429   7.975868 C.2        1 UNL1     0.1740
     15 C         -4.172255   -0.481924   8.90602 C.3        1 UNL1     0.0520
     16 C         -4.099362   0.883404   8.2363 C.3        1 UNL1     0.1322
     17 O         -3.364678   0.806981   6.994741 O.3        1 UNL1     -0.4828
     18 C         -5.452591   1.590669   8.130136 C.ar        1 UNL1     -0.0067
     19 C         -5.848255   2.14718   6.896459 C.ar        1 UNL1     -0.0516
     20 C         -7.057875   2.841763   6.776729 C.ar        1 UNL1     -0.0198
     21 C         -7.875352   2.992717   7.88252 C.ar        1 UNL1     0.1169
     22 C         -7.52884   2.42727   9.102781 C.ar        1 UNL1     -0.0198
     23 C         -6.328031   1.716799   9.218296 C.ar        1 UNL1     -0.0516
     24 O         -9.027627   3.707881   7.736907 O.3        1 UNL1     -0.5068
     25 O         -5.620994   -2.29963   8.410412 O.2        1 UNL1     -0.2917
     26 O         -5.71658   -3.278871   5.900337 O.3        1 UNL1     -0.5058
     27 O         -0.181473   -0.165547   2.547468 O.3        1 UNL1     -0.3648
     28 O         0.234507   -1.961687   -0.554631 O.3        1 UNL1     -0.3841
     29 O         -2.46087   0.377755   -0.21878 O.3        1 UNL1     -0.3863
     30 O         -2.484182   -3.295231   -0.125301 O.3        1 UNL1     -0.3829
     31 H         0.640845   -1.83284   1.825032 H        1 UNL1     0.0937
     32 H         0.0   0.0   0.0 H        1 UNL1     0.0671
     33 H         -1.9062   -1.192184   -1.36393 H        1 UNL1     0.0649
     34 H         -3.859188   -1.797331   0.153249 H        1 UNL1     0.0683
     35 H         -3.186213   -2.88646   2.244935 H        1 UNL1     0.1085
     36 H         -4.786519   -2.878436   3.558981 H        1 UNL1     0.0691
     37 H         -2.686748   0.764564   4.533514 H        1 UNL1     0.0691
     38 H         -3.170809   -0.88204   9.097175 H        1 UNL1     0.0385
     39 H         -4.714385   -0.448119   9.857193 H        1 UNL1     0.0385
     40 H         -3.484679   1.527229   8.879864 H        1 UNL1     0.0789
     41 H         -5.219918   2.050309   6.015857 H        1 UNL1     0.0623
     42 H         -7.346244   3.276556   5.82289 H        1 UNL1     0.0654
     43 H         -8.168777   2.526548   9.971421 H        1 UNL1     0.0654
     44 H         -6.093918   1.279261   10.184006 H        1 UNL1     0.0623
     45 H         -8.796064   4.610114   7.462916 H        1 UNL1     0.2921
     46 H         -5.304653   -3.790643   6.614352 H        1 UNL1     0.2922
     47 H         0.562755   0.37681   2.251103 H        1 UNL1     0.2126
     48 H         1.173097   -1.90504   -0.290866 H        1 UNL1     0.2101
     49 H         -2.027146   0.949354   -0.872196 H        1 UNL1     0.2100
     50 H         -2.735287   -3.315678   -1.072001 H        1 UNL1     0.2102
@<TRIPOS>BOND
     1     1     2    1
     2     1     6    1
     3     2     3    1
     4     3     4    1
     5     3    29    1
     6     3    33    1
     7     4     5    1
     8     5     6    1
     9     5     7    1
    10     5    35    1
    11     7     8    1
    12     8     9   ar
    13     8    13   ar
    14     9    10   ar
    15     9    36    1
    16    10    11   ar
    17    10    26    1
    18    11    12   ar
    19    11    14    1
    20    12    13   ar
    21    12    17    1
    22    13    37    1
    23    14    15    1
    24    14    25    2
    25    15    16    1
    26    15    38    1
    27    15    39    1
    28    16    17    1
    29    16    18    1
    30    16    40    1
    31    18    19   ar
    32    18    23   ar
    33    19    20   ar
    34    19    41    1
    35    20    21   ar
    36    20    42    1
    37    21    22   ar
    38    21    24    1
    39    22    23   ar
    40    22    43    1
    41    23    44    1
    42    24    45    1
    43    26    46    1
    44    27    47    1
    45    28    48    1
    46    29    49    1
    47    30    50    1
    48     1    31    1
    49     1    27    1
    50     2    32    1
    51     2    28    1
    52     4    34    1
    53     4    30    1
