@<TRIPOS>MOLECULE
*****
 50 53 0 0 0
SMALL
GASTEIGER

@<TRIPOS>ATOM
     1 C         -0.78686   -1.133813   1.692963 C.3        1 UNL1     0.1889
     2 C         -0.543065   -0.937499   0.172448 C.3        1 UNL1     0.1342
     3 C         -1.816349   -0.944462   -0.687298 C.3        1 UNL1     0.1174
     4 C         -2.883887   -1.905952   -0.159077 C.3        1 UNL1     0.1456
     5 C         -3.097009   -1.774416   1.360015 C.3        1 UNL1     0.2326
     6 O         -1.864625   -1.98909   2.04413 O.3        1 UNL1     -0.3076
     7 O         -3.751326   -0.551174   1.743252 O.3        1 UNL1     -0.4605
     8 C         -4.56316   -0.622375   2.86101 C.ar        1 UNL1     0.1310
     9 C         -5.70265   -1.424531   2.98515 C.ar        1 UNL1     0.0226
     10 C         -6.451504   -1.439983   4.167893 C.ar        1 UNL1     0.1343
     11 C         -6.065033   -0.670853   5.26467 C.ar        1 UNL1     0.1007
     12 C         -4.952473   0.16527   5.138595 C.ar        1 UNL1     0.1389
     13 C         -4.201197   0.182622   3.948337 C.ar        1 UNL1     0.0229
     14 C         -6.77083   -0.71255   6.566309 C.2        1 UNL1     0.1740
     15 C         -6.091263   0.003122   7.696597 C.3        1 UNL1     0.0520
     16 C         -5.508659   1.304214   7.162098 C.3        1 UNL1     0.1322
     17 O         -4.546691   1.04384   6.116205 O.3        1 UNL1     -0.4828
     18 C         -6.565798   2.351968   6.805175 C.ar        1 UNL1     -0.0067
     19 C         -7.895149   1.943246   6.572829 C.ar        1 UNL1     -0.0516
     20 C         -8.87624   2.869045   6.198237 C.ar        1 UNL1     -0.0198
     21 C         -8.539806   4.202241   6.045832 C.ar        1 UNL1     0.1169
     22 C         -7.24674   4.640623   6.300076 C.ar        1 UNL1     -0.0198
     23 C         -6.269642   3.71799   6.692608 C.ar        1 UNL1     -0.0516
     24 O         -9.513274   5.068603   5.643117 O.3        1 UNL1     -0.5068
     25 O         -7.803214   -1.35042   6.755493 O.2        1 UNL1     -0.2917
     26 O         -7.552846   -2.243401   4.224006 O.3        1 UNL1     -0.5058
     27 O         -0.825322   0.083185   2.421127 O.3        1 UNL1     -0.3648
     28 O         0.2966   -2.008658   -0.296899 O.3        1 UNL1     -0.3841
     29 O         -2.310476   0.383591   -0.872355 O.3        1 UNL1     -0.3863
     30 O         -2.488329   -3.262709   -0.456455 O.3        1 UNL1     -0.3829
     31 H         0.092581   -1.655529   2.085995 H        1 UNL1     0.0937
     32 H         0.0   0.0   -0.0 H        1 UNL1     0.0671
     33 H         -1.541012   -1.295898   -1.69149 H        1 UNL1     0.0649
     34 H         -3.834476   -1.728966   -0.674303 H        1 UNL1     0.0683
     35 H         -3.751568   -2.61895   1.609401 H        1 UNL1     0.1085
     36 H         -6.02314   -2.087042   2.188604 H        1 UNL1     0.0691
     37 H         -3.33991   0.843165   3.875125 H        1 UNL1     0.0691
     38 H         -5.303506   -0.65464   8.07911 H        1 UNL1     0.0385
     39 H         -6.815292   0.173174   8.500738 H        1 UNL1     0.0385
     40 H         -4.918179   1.751723   7.973016 H        1 UNL1     0.0789
     41 H         -8.18255   0.901025   6.676885 H        1 UNL1     0.0623
     42 H         -9.895143   2.539594   6.010331 H        1 UNL1     0.0654
     43 H         -6.9759   5.684756   6.198373 H        1 UNL1     0.0654
     44 H         -5.272223   4.097122   6.893254 H        1 UNL1     0.0623
     45 H         -9.087992   5.835933   5.227117 H        1 UNL1     0.2921
     46 H         -7.564855   -2.71722   5.070625 H        1 UNL1     0.2922
     47 H         0.072685   0.401174   2.589436 H        1 UNL1     0.2126
     48 H         0.486975   -1.823551   -1.2367 H        1 UNL1     0.2101
     49 H         -3.025744   0.560571   -0.240799 H        1 UNL1     0.2100
     50 H         -2.532989   -3.383816   -1.427563 H        1 UNL1     0.2102
@<TRIPOS>BOND
     1     1     2    1
     2     1     6    1
     3     2     3    1
     4     3     4    1
     5     3    29    1
     6     3    33    1
     7     4     5    1
     8     5     6    1
     9     5     7    1
    10     5    35    1
    11     7     8    1
    12     8     9   ar
    13     8    13   ar
    14     9    10   ar
    15     9    36    1
    16    10    11   ar
    17    10    26    1
    18    11    12   ar
    19    11    14    1
    20    12    13   ar
    21    12    17    1
    22    13    37    1
    23    14    15    1
    24    14    25    2
    25    15    16    1
    26    15    38    1
    27    15    39    1
    28    16    17    1
    29    16    18    1
    30    16    40    1
    31    18    19   ar
    32    18    23   ar
    33    19    20   ar
    34    19    41    1
    35    20    21   ar
    36    20    42    1
    37    21    22   ar
    38    21    24    1
    39    22    23   ar
    40    22    43    1
    41    23    44    1
    42    24    45    1
    43    26    46    1
    44    27    47    1
    45    28    48    1
    46    29    49    1
    47    30    50    1
    48     1    31    1
    49     1    27    1
    50     2    32    1
    51     2    28    1
    52     4    34    1
    53     4    30    1
