@<TRIPOS>MOLECULE
*****
 50 53 0 0 0
SMALL
GASTEIGER

@<TRIPOS>ATOM
     1 C         0.327595   -0.625448   2.066954 C.3        1 UNL1     0.1889
     2 C         0.020265   -0.933045   0.576695 C.3        1 UNL1     0.1342
     3 C         -1.289894   -1.698864   0.336968 C.3        1 UNL1     0.1174
     4 C         -1.602159   -2.703404   1.448952 C.3        1 UNL1     0.1456
     5 C         -1.41989   -2.103087   2.854925 C.3        1 UNL1     0.2326
     6 O         -0.09131   -1.607375   3.003295 O.3        1 UNL1     -0.3076
     7 O         -2.427036   -1.134499   3.199621 O.3        1 UNL1     -0.4605
     8 C         -2.760957   -1.057898   4.539829 C.ar        1 UNL1     0.1310
     9 C         -3.011738   -2.150992   5.376222 C.ar        1 UNL1     0.0226
     10 C         -3.326746   -1.970472   6.728289 C.ar        1 UNL1     0.1343
     11 C         -3.375289   -0.692234   7.2829 C.ar        1 UNL1     0.1007
     12 C         -3.167071   0.40909   6.448326 C.ar        1 UNL1     0.1389
     13 C         -2.85295   0.227432   5.088267 C.ar        1 UNL1     0.0229
     14 C         -3.620634   -0.448092   8.723161 C.2        1 UNL1     0.1740
     15 C         -3.417453   0.964709   9.186045 C.3        1 UNL1     0.0520
     16 C         -3.975134   1.904058   8.125587 C.3        1 UNL1     0.1322
     17 O         -3.296947   1.713851   6.864257 O.3        1 UNL1     -0.4828
     18 C         -5.502853   1.890905   8.032718 C.ar        1 UNL1     -0.0067
     19 C         -6.11888   1.760693   6.771065 C.ar        1 UNL1     -0.0516
     20 C         -7.512872   1.792534   6.645623 C.ar        1 UNL1     -0.0198
     21 C         -8.299871   1.961053   7.770817 C.ar        1 UNL1     0.1169
     22 C         -7.723792   2.058445   9.030772 C.ar        1 UNL1     -0.0198
     23 C         -6.330528   2.008123   9.158599 C.ar        1 UNL1     -0.0516
     24 O         -9.652237   2.025206   7.605313 O.3        1 UNL1     -0.5068
     25 O         -3.894293   -1.339125   9.522946 O.2        1 UNL1     -0.2917
     26 O         -3.561478   -3.078033   7.489731 O.3        1 UNL1     -0.5058
     27 O         -0.061168   0.679076   2.466789 O.3        1 UNL1     -0.3648
     28 O         1.090005   -1.737958   0.047092 O.3        1 UNL1     -0.3841
     29 O         -2.368066   -0.794147   0.089651 O.3        1 UNL1     -0.3863
     30 O         -0.728138   -3.845259   1.314993 O.3        1 UNL1     -0.3829
     31 H         1.418436   -0.624491   2.167666 H        1 UNL1     0.0937
     32 H         -0.0   0.0   0.0 H        1 UNL1     0.0671
     33 H         -1.1755   -2.276964   -0.590627 H        1 UNL1     0.0649
     34 H         -2.628716   -3.07134   1.343106 H        1 UNL1     0.0683
     35 H         -1.514981   -2.966322   3.525493 H        1 UNL1     0.1085
     36 H         -2.934718   -3.17198   5.018769 H        1 UNL1     0.0691
     37 H         -2.696387   1.101258   4.459452 H        1 UNL1     0.0691
     38 H         -2.341458   1.117095   9.322208 H        1 UNL1     0.0385
     39 H         -3.907362   1.098409   10.156556 H        1 UNL1     0.0385
     40 H         -3.71117   2.926568   8.427773 H        1 UNL1     0.0789
     41 H         -5.52291   1.636523   5.871591 H        1 UNL1     0.0623
     42 H         -7.975548   1.703015   5.665864 H        1 UNL1     0.0654
     43 H         -8.331312   2.175586   9.920214 H        1 UNL1     0.0654
     44 H         -5.914908   2.076682   10.159301 H        1 UNL1     0.0623
     45 H         -9.855672   2.783451   7.034002 H        1 UNL1     0.2921
     46 H         -2.956979   -3.082929   8.248657 H        1 UNL1     0.2922
     47 H         0.354464   1.341579   1.897404 H        1 UNL1     0.2126
     48 H         1.904208   -1.203526   0.119125 H        1 UNL1     0.2101
     49 H         -2.246253   -0.363046   -0.771226 H        1 UNL1     0.2100
     50 H         -0.952515   -4.300009   0.476798 H        1 UNL1     0.2102
@<TRIPOS>BOND
     1     1     2    1
     2     1     6    1
     3     2     3    1
     4     3     4    1
     5     3    29    1
     6     3    33    1
     7     4     5    1
     8     5     6    1
     9     5     7    1
    10     5    35    1
    11     7     8    1
    12     8     9   ar
    13     8    13   ar
    14     9    10   ar
    15     9    36    1
    16    10    11   ar
    17    10    26    1
    18    11    12   ar
    19    11    14    1
    20    12    13   ar
    21    12    17    1
    22    13    37    1
    23    14    15    1
    24    14    25    2
    25    15    16    1
    26    15    38    1
    27    15    39    1
    28    16    17    1
    29    16    18    1
    30    16    40    1
    31    18    19   ar
    32    18    23   ar
    33    19    20   ar
    34    19    41    1
    35    20    21   ar
    36    20    42    1
    37    21    22   ar
    38    21    24    1
    39    22    23   ar
    40    22    43    1
    41    23    44    1
    42    24    45    1
    43    26    46    1
    44    27    47    1
    45    28    48    1
    46    29    49    1
    47    30    50    1
    48     1    31    1
    49     1    27    1
    50     2    32    1
    51     2    28    1
    52     4    34    1
    53     4    30    1
