@<TRIPOS>MOLECULE
*****
 50 53 0 0 0
SMALL
GASTEIGER

@<TRIPOS>ATOM
     1 C         0.1892   -1.749986   1.293274 C.3        1 UNL1     0.1889
     2 C         -0.345887   -1.040922   0.020148 C.3        1 UNL1     0.1342
     3 C         -1.874524   -1.064051   -0.132167 C.3        1 UNL1     0.1174
     4 C         -2.504229   -2.354983   0.397063 C.3        1 UNL1     0.1456
     5 C         -1.958568   -2.753914   1.780346 C.3        1 UNL1     0.2326
     6 O         -0.54046   -2.889979   1.7227 O.3        1 UNL1     -0.3076
     7 O         -2.401368   -1.889374   2.842335 O.3        1 UNL1     -0.4605
     8 C         -2.563632   -2.48434   4.080565 C.ar        1 UNL1     0.1310
     9 C         -3.459955   -3.518381   4.371536 C.ar        1 UNL1     0.0226
     10 C         -3.538319   -4.068015   5.656707 C.ar        1 UNL1     0.1343
     11 C         -2.70462   -3.612654   6.677213 C.ar        1 UNL1     0.1007
     12 C         -1.834348   -2.552649   6.40926 C.ar        1 UNL1     0.1389
     13 C         -1.757609   -1.998379   5.117623 C.ar        1 UNL1     0.0229
     14 C         -2.686409   -4.213926   8.030836 C.2        1 UNL1     0.1740
     15 C         -1.578084   -3.752932   8.931196 C.3        1 UNL1     0.0520
     16 C         -1.390751   -2.254629   8.736384 C.3        1 UNL1     0.1322
     17 O         -1.046855   -1.954791   7.365653 O.3        1 UNL1     -0.4828
     18 C         -2.536371   -1.411747   9.301916 C.ar        1 UNL1     -0.0067
     19 C         -3.769288   -1.37163   8.618893 C.ar        1 UNL1     -0.0516
     20 C         -4.821929   -0.573791   9.082964 C.ar        1 UNL1     -0.0198
     21 C         -4.652114   0.192491   10.222175 C.ar        1 UNL1     0.1169
     22 C         -3.461127   0.148344   10.935224 C.ar        1 UNL1     -0.0198
     23 C         -2.414652   -0.663597   10.481684 C.ar        1 UNL1     -0.0516
     24 O         -5.686499   0.986208   10.622752 O.3        1 UNL1     -0.5068
     25 O         -3.465425   -5.092543   8.390906 O.2        1 UNL1     -0.2917
     26 O         -4.434333   -5.073529   5.875079 O.3        1 UNL1     -0.5058
     27 O         0.451773   -0.861066   2.367361 O.3        1 UNL1     -0.3648
     28 O         0.209665   -1.69679   -1.1348 O.3        1 UNL1     -0.3841
     29 O         -2.458513   0.109966   0.435966 O.3        1 UNL1     -0.3863
     30 O         -2.239258   -3.427355   -0.533259 O.3        1 UNL1     -0.3829
     31 H         1.172383   -2.157875   1.034321 H        1 UNL1     0.0937
     32 H         0.0   0.0   0.0 H        1 UNL1     0.0671
     33 H         -2.105369   -1.014625   -1.205474 H        1 UNL1     0.0649
     34 H         -3.592561   -2.243379   0.456037 H        1 UNL1     0.0683
     35 H         -2.368793   -3.757806   1.947061 H        1 UNL1     0.1085
     36 H         -4.095271   -3.953976   3.608155 H        1 UNL1     0.0691
     37 H         -1.072669   -1.17312   4.935149 H        1 UNL1     0.0691
     38 H         -0.673599   -4.303686   8.651723 H        1 UNL1     0.0385
     39 H         -1.82746   -4.007823   9.96687 H        1 UNL1     0.0385
     40 H         -0.502632   -1.961823   9.312605 H        1 UNL1     0.0789
     41 H         -3.924572   -1.95684   7.717191 H        1 UNL1     0.0623
     42 H         -5.763777   -0.542215   8.540804 H        1 UNL1     0.0654
     43 H         -3.322663   0.732822   11.836958 H        1 UNL1     0.0654
     44 H         -1.50188   -0.681917   11.069353 H        1 UNL1     0.0623
     45 H         -5.446639   1.911581   10.452845 H        1 UNL1     0.2921
     46 H         -4.011158   -5.777411   6.391688 H        1 UNL1     0.2922
     47 H         1.059264   -0.163606   2.083876 H        1 UNL1     0.2126
     48 H         -0.371396   -2.456685   -1.331419 H        1 UNL1     0.2101
     49 H         -2.784404   -0.082849   1.329505 H        1 UNL1     0.2100
     50 H         -2.749977   -3.250718   -1.350374 H        1 UNL1     0.2102
@<TRIPOS>BOND
     1     1     2    1
     2     1     6    1
     3     2     3    1
     4     3     4    1
     5     3    29    1
     6     3    33    1
     7     4     5    1
     8     5     6    1
     9     5     7    1
    10     5    35    1
    11     7     8    1
    12     8     9   ar
    13     8    13   ar
    14     9    10   ar
    15     9    36    1
    16    10    11   ar
    17    10    26    1
    18    11    12   ar
    19    11    14    1
    20    12    13   ar
    21    12    17    1
    22    13    37    1
    23    14    15    1
    24    14    25    2
    25    15    16    1
    26    15    38    1
    27    15    39    1
    28    16    17    1
    29    16    18    1
    30    16    40    1
    31    18    19   ar
    32    18    23   ar
    33    19    20   ar
    34    19    41    1
    35    20    21   ar
    36    20    42    1
    37    21    22   ar
    38    21    24    1
    39    22    23   ar
    40    22    43    1
    41    23    44    1
    42    24    45    1
    43    26    46    1
    44    27    47    1
    45    28    48    1
    46    29    49    1
    47    30    50    1
    48     1    31    1
    49     1    27    1
    50     2    32    1
    51     2    28    1
    52     4    34    1
    53     4    30    1
