@<TRIPOS>MOLECULE
*****
 50 53 0 0 0
SMALL
GASTEIGER

@<TRIPOS>ATOM
     1 C         -0.332119   -1.328332   1.701774 C.3        1 UNL1     0.1889
     2 C         -0.462524   -0.97537   0.195669 C.3        1 UNL1     0.1342
     3 C         -1.903343   -0.962728   -0.337572 C.3        1 UNL1     0.1174
     4 C         -2.789732   -2.021943   0.322349 C.3        1 UNL1     0.1456
     5 C         -2.638161   -2.047314   1.854258 C.3        1 UNL1     0.2326
     6 O         -1.273288   -2.265486   2.204106 O.3        1 UNL1     -0.3076
     7 O         -3.21303   -0.900239   2.506228 O.3        1 UNL1     -0.4605
     8 C         -3.723029   -1.115744   3.773897 C.ar        1 UNL1     0.1310
     9 C         -4.584352   -2.157554   4.134528 C.ar        1 UNL1     0.0226
     10 C         -5.033919   -2.301541   5.452504 C.ar        1 UNL1     0.1343
     11 C         -4.613669   -1.420248   6.447769 C.ar        1 UNL1     0.1007
     12 C         -3.786345   -0.351851   6.091612 C.ar        1 UNL1     0.1389
     13 C         -3.336561   -0.205748   4.7658 C.ar        1 UNL1     0.0229
     14 C         -4.990504   -1.574892   7.87193 C.2        1 UNL1     0.1740
     15 C         -4.272755   -0.675337   8.834835 C.3        1 UNL1     0.0520
     16 C         -4.146199   0.703942   8.202751 C.3        1 UNL1     0.1322
     17 O         -3.399619   0.635538   6.967838 O.3        1 UNL1     -0.4828
     18 C         -5.473644   1.459032   8.100511 C.ar        1 UNL1     -0.0067
     19 C         -5.834761   2.062514   6.878375 C.ar        1 UNL1     -0.0516
     20 C         -7.018938   2.800477   6.76392 C.ar        1 UNL1     -0.0198
     21 C         -7.844982   2.948169   7.863767 C.ar        1 UNL1     0.1169
     22 C         -7.533113   2.337785   9.071661 C.ar        1 UNL1     -0.0198
     23 C         -6.358217   1.584364   9.181352 C.ar        1 UNL1     -0.0516
     24 O         -8.970834   3.705478   7.724698 O.3        1 UNL1     -0.5068
     25 O         -5.775417   -2.429405   8.274675 O.2        1 UNL1     -0.2917
     26 O         -5.873536   -3.338316   5.738381 O.3        1 UNL1     -0.5058
     27 O         -0.226746   -0.19013   2.542119 O.3        1 UNL1     -0.3648
     28 O         0.267951   -1.953846   -0.567023 O.3        1 UNL1     -0.3841
     29 O         -2.460683   0.350932   -0.261403 O.3        1 UNL1     -0.3863
     30 O         -2.442271   -3.322758   -0.199993 O.3        1 UNL1     -0.3829
     31 H         0.628504   -1.841274   1.820829 H        1 UNL1     0.0937
     32 H         0.0   0.0   0.0 H        1 UNL1     0.0671
     33 H         -1.866323   -1.202261   -1.409474 H        1 UNL1     0.0649
     34 H         -3.839834   -1.84352   0.065733 H        1 UNL1     0.0683
     35 H         -3.192954   -2.943141   2.160161 H        1 UNL1     0.1085
     36 H         -4.902541   -2.907884   3.41907 H        1 UNL1     0.0691
     37 H         -2.693967   0.635196   4.514049 H        1 UNL1     0.0691
     38 H         -3.28762   -1.113929   9.026338 H        1 UNL1     0.0385
     39 H         -4.82484   -0.648353   9.780485 H        1 UNL1     0.0385
     40 H         -3.518104   1.309455   8.870112 H        1 UNL1     0.0789
     41 H         -5.198809   1.968982   6.002894 H        1 UNL1     0.0623
     42 H         -7.280457   3.270992   5.819338 H        1 UNL1     0.0654
     43 H         -8.180425   2.434444   9.935116 H        1 UNL1     0.0654
     44 H         -6.151163   1.112604   10.13708 H        1 UNL1     0.0623
     45 H         -8.705806   4.606913   7.479969 H        1 UNL1     0.2921
     46 H         -5.48817   -3.881614   6.443882 H        1 UNL1     0.2922
     47 H         0.51628   0.363557   2.264266 H        1 UNL1     0.2126
     48 H         1.200868   -1.888093   -0.285823 H        1 UNL1     0.2101
     49 H         -2.021759   0.933275   -0.901728 H        1 UNL1     0.2100
     50 H         -2.675505   -3.337777   -1.151355 H        1 UNL1     0.2102
@<TRIPOS>BOND
     1     1     2    1
     2     1     6    1
     3     2     3    1
     4     3     4    1
     5     3    29    1
     6     3    33    1
     7     4     5    1
     8     5     6    1
     9     5     7    1
    10     5    35    1
    11     7     8    1
    12     8     9   ar
    13     8    13   ar
    14     9    10   ar
    15     9    36    1
    16    10    11   ar
    17    10    26    1
    18    11    12   ar
    19    11    14    1
    20    12    13   ar
    21    12    17    1
    22    13    37    1
    23    14    15    1
    24    14    25    2
    25    15    16    1
    26    15    38    1
    27    15    39    1
    28    16    17    1
    29    16    18    1
    30    16    40    1
    31    18    19   ar
    32    18    23   ar
    33    19    20   ar
    34    19    41    1
    35    20    21   ar
    36    20    42    1
    37    21    22   ar
    38    21    24    1
    39    22    23   ar
    40    22    43    1
    41    23    44    1
    42    24    45    1
    43    26    46    1
    44    27    47    1
    45    28    48    1
    46    29    49    1
    47    30    50    1
    48     1    31    1
    49     1    27    1
    50     2    32    1
    51     2    28    1
    52     4    34    1
    53     4    30    1
