@<TRIPOS>MOLECULE
*****
 50 53 0 0 0
SMALL
GASTEIGER

@<TRIPOS>ATOM
     1 C         -0.25378   -1.395249   1.661229 C.3        1 UNL1     0.1889
     2 C         -0.444904   -0.987307   0.175633 C.3        1 UNL1     0.1342
     3 C         -1.90501   -0.971156   -0.302168 C.3        1 UNL1     0.1174
     4 C         -2.754955   -2.064613   0.3498 C.3        1 UNL1     0.1456
     5 C         -2.544999   -2.145948   1.872845 C.3        1 UNL1     0.2326
     6 O         -1.165684   -2.361431   2.162544 O.3        1 UNL1     -0.3076
     7 O         -3.106185   -1.030945   2.589196 O.3        1 UNL1     -0.4605
     8 C         -3.565421   -1.299918   3.866021 C.ar        1 UNL1     0.1310
     9 C         -4.356346   -2.39546   4.228684 C.ar        1 UNL1     0.0226
     10 C         -4.757748   -2.590645   5.555591 C.ar        1 UNL1     0.1343
     11 C         -4.357698   -1.707065   6.557133 C.ar        1 UNL1     0.1007
     12 C         -3.602047   -0.586984   6.200487 C.ar        1 UNL1     0.1389
     13 C         -3.200781   -0.389519   4.865787 C.ar        1 UNL1     0.0229
     14 C         -4.682756   -1.910908   7.987845 C.2        1 UNL1     0.1740
     15 C         -3.987778   -0.991731   8.948923 C.3        1 UNL1     0.0520
     16 C         -3.95701   0.404764   8.343273 C.3        1 UNL1     0.1322
     17 O         -3.244901   0.402984   7.086306 O.3        1 UNL1     -0.4828
     18 C         -5.326849   1.085916   8.295342 C.ar        1 UNL1     -0.0067
     19 C         -5.757215   1.692301   7.097303 C.ar        1 UNL1     -0.0516
     20 C         -6.983483   2.364652   7.032692 C.ar        1 UNL1     -0.0198
     21 C         -7.783331   2.443796   8.158661 C.ar        1 UNL1     0.1169
     22 C         -7.402155   1.828036   9.343728 C.ar        1 UNL1     -0.0198
     23 C         -6.184432   1.139826   9.403511 C.ar        1 UNL1     -0.0516
     24 O         -8.953199   3.139228   8.068198 O.3        1 UNL1     -0.5068
     25 O         -5.406586   -2.816028   8.394434 O.2        1 UNL1     -0.2917
     26 O         -5.529518   -3.678456   5.843035 O.3        1 UNL1     -0.5058
     27 O         -0.127999   -0.288385   2.53976 O.3        1 UNL1     -0.3648
     28 O         0.26586   -1.927879   -0.650712 O.3        1 UNL1     -0.3841
     29 O         -2.472252   0.332202   -0.155106 O.3        1 UNL1     -0.3863
     30 O         -2.414525   -3.340738   -0.234411 O.3        1 UNL1     -0.3829
     31 H         0.715792   -1.901227   1.724443 H        1 UNL1     0.0937
     32 H         0.0   0.0   0.0 H        1 UNL1     0.0671
     33 H         -1.906363   -1.169685   -1.38305 H        1 UNL1     0.0649
     34 H         -3.815798   -1.88874   0.139845 H        1 UNL1     0.0683
     35 H         -3.078711   -3.058989   2.165054 H        1 UNL1     0.1085
     36 H         -4.653487   -3.148131   3.506663 H        1 UNL1     0.0691
     37 H         -2.613733   0.491055   4.613878 H        1 UNL1     0.0691
     38 H         -2.97451   -1.377965   9.102667 H        1 UNL1     0.0385
     39 H         -4.512094   -1.014617   9.910353 H        1 UNL1     0.0385
     40 H         -3.34396   1.031253   9.005241 H        1 UNL1     0.0789
     41 H         -5.143409   1.652077   6.202164 H        1 UNL1     0.0623
     42 H         -7.298786   2.838392   6.10632 H        1 UNL1     0.0654
     43 H         -8.027831   1.870981   10.227241 H        1 UNL1     0.0654
     44 H         -5.923083   0.661561   10.342555 H        1 UNL1     0.0623
     45 H         -8.74612   4.058819   7.835419 H        1 UNL1     0.2921
     46 H         -5.093689   -4.213138   6.52537 H        1 UNL1     0.2922
     47 H         0.598312   0.28389   2.255449 H        1 UNL1     0.2126
     48 H         1.208085   -1.862041   -0.402501 H        1 UNL1     0.2101
     49 H         -2.063879   0.943272   -0.788841 H        1 UNL1     0.2100
     50 H         -1.503935   -3.276285   -0.589919 H        1 UNL1     0.2102
@<TRIPOS>BOND
     1     1     2    1
     2     1     6    1
     3     2     3    1
     4     3     4    1
     5     3    29    1
     6     3    33    1
     7     4     5    1
     8     5     6    1
     9     5     7    1
    10     5    35    1
    11     7     8    1
    12     8     9   ar
    13     8    13   ar
    14     9    10   ar
    15     9    36    1
    16    10    11   ar
    17    10    26    1
    18    11    12   ar
    19    11    14    1
    20    12    13   ar
    21    12    17    1
    22    13    37    1
    23    14    15    1
    24    14    25    2
    25    15    16    1
    26    15    38    1
    27    15    39    1
    28    16    17    1
    29    16    18    1
    30    16    40    1
    31    18    19   ar
    32    18    23   ar
    33    19    20   ar
    34    19    41    1
    35    20    21   ar
    36    20    42    1
    37    21    22   ar
    38    21    24    1
    39    22    23   ar
    40    22    43    1
    41    23    44    1
    42    24    45    1
    43    26    46    1
    44    27    47    1
    45    28    48    1
    46    29    49    1
    47    30    50    1
    48     1    31    1
    49     1    27    1
    50     2    32    1
    51     2    28    1
    52     4    34    1
    53     4    30    1
