@<TRIPOS>MOLECULE
*****
 50 53 0 0 0
SMALL
GASTEIGER

@<TRIPOS>ATOM
     1 C         -0.30956   -1.371711   1.671342 C.3        1 UNL1     0.1889
     2 C         -0.462004   -0.979148   0.177155 C.3        1 UNL1     0.1342
     3 C         -1.910749   -0.9494   -0.33345 C.3        1 UNL1     0.1174
     4 C         -2.789706   -2.023595   0.312041 C.3        1 UNL1     0.1456
     5 C         -2.614859   -2.089404   1.840263 C.3        1 UNL1     0.2326
     6 O         -1.245379   -2.319641   2.163348 O.3        1 UNL1     -0.3076
     7 O         -3.176754   -0.958542   2.53073 O.3        1 UNL1     -0.4605
     8 C         -3.67818   -1.208416   3.795508 C.ar        1 UNL1     0.1310
     9 C         -4.499035   -2.286611   4.143348 C.ar        1 UNL1     0.0226
     10 C         -4.94281   -2.463309   5.459305 C.ar        1 UNL1     0.1343
     11 C         -4.556611   -1.578455   6.465149 C.ar        1 UNL1     0.1007
     12 C         -3.770746   -0.475049   6.122083 C.ar        1 UNL1     0.1389
     13 C         -3.326835   -0.296134   4.798314 C.ar        1 UNL1     0.0229
     14 C         -4.927302   -1.76428   7.887194 C.2        1 UNL1     0.1740
     15 C         -4.244518   -0.849416   8.861042 C.3        1 UNL1     0.0520
     16 C         -4.170791   0.541094   8.245409 C.3        1 UNL1     0.1322
     17 O         -3.4221   0.515947   7.010137 O.3        1 UNL1     -0.4828
     18 C         -5.526144   1.246021   8.151479 C.ar        1 UNL1     -0.0067
     19 C         -5.903245   1.8634   6.941169 C.ar        1 UNL1     -0.0516
     20 C         -7.114697   2.55709   6.835623 C.ar        1 UNL1     -0.0198
     21 C         -7.952501   2.646668   7.932842 C.ar        1 UNL1     0.1169
     22 C         -7.624253   2.020806   9.128412 C.ar        1 UNL1     -0.0198
     23 C         -6.42144   1.311422   9.228773 C.ar        1 UNL1     -0.0516
     24 O         -9.106284   3.362536   7.803541 O.3        1 UNL1     -0.5068
     25 O         -5.678969   -2.652905   8.279401 O.2        1 UNL1     -0.2917
     26 O         -5.742166   -3.534756   5.732467 O.3        1 UNL1     -0.5058
     27 O         -0.188447   -0.256138   2.539452 O.3        1 UNL1     -0.3648
     28 O         0.254225   -1.938908   -0.621958 O.3        1 UNL1     -0.3841
     29 O         -2.463468   0.363028   -0.21443 O.3        1 UNL1     -0.3863
     30 O         -2.453612   -3.311042   -0.249397 O.3        1 UNL1     -0.3829
     31 H         0.651438   -1.889691   1.762221 H        1 UNL1     0.0937
     32 H         0.0   0.0   0.0 H        1 UNL1     0.0671
     33 H         -1.890697   -1.160862   -1.41169 H        1 UNL1     0.0649
     34 H         -3.843134   -1.836222   0.076286 H        1 UNL1     0.0683
     35 H         -3.167235   -2.991721   2.131094 H        1 UNL1     0.1085
     36 H         -4.788267   -3.040023   3.418892 H        1 UNL1     0.0691
     37 H         -2.716869   0.571699   4.55686 H        1 UNL1     0.0691
     38 H         -3.243335   -1.252249   9.047814 H        1 UNL1     0.0385
     39 H         -4.797263   -0.854786   9.806675 H        1 UNL1     0.0385
     40 H         -3.56634   1.162228   8.920206 H        1 UNL1     0.0789
     41 H         -5.258857   1.815261   6.068188 H        1 UNL1     0.0623
     42 H         -7.388744   3.039028   5.900398 H        1 UNL1     0.0654
     43 H         -8.280042   2.071907   9.989365 H        1 UNL1     0.0654
     44 H         -6.201833   0.825856   10.174735 H        1 UNL1     0.0623
     45 H         -8.874565   4.285746   7.611953 H        1 UNL1     0.2921
     46 H         -5.337003   -4.070495   6.432637 H        1 UNL1     0.2922
     47 H         0.538656   0.313892   2.252664 H        1 UNL1     0.2126
     48 H         1.19744   -1.852759   -0.383932 H        1 UNL1     0.2101
     49 H         -2.038798   0.959009   -0.851813 H        1 UNL1     0.2100
     50 H         -2.706566   -3.302583   -1.195788 H        1 UNL1     0.2102
@<TRIPOS>BOND
     1     1     2    1
     2     1     6    1
     3     2     3    1
     4     3     4    1
     5     3    29    1
     6     3    33    1
     7     4     5    1
     8     5     6    1
     9     5     7    1
    10     5    35    1
    11     7     8    1
    12     8     9   ar
    13     8    13   ar
    14     9    10   ar
    15     9    36    1
    16    10    11   ar
    17    10    26    1
    18    11    12   ar
    19    11    14    1
    20    12    13   ar
    21    12    17    1
    22    13    37    1
    23    14    15    1
    24    14    25    2
    25    15    16    1
    26    15    38    1
    27    15    39    1
    28    16    17    1
    29    16    18    1
    30    16    40    1
    31    18    19   ar
    32    18    23   ar
    33    19    20   ar
    34    19    41    1
    35    20    21   ar
    36    20    42    1
    37    21    22   ar
    38    21    24    1
    39    22    23   ar
    40    22    43    1
    41    23    44    1
    42    24    45    1
    43    26    46    1
    44    27    47    1
    45    28    48    1
    46    29    49    1
    47    30    50    1
    48     1    31    1
    49     1    27    1
    50     2    32    1
    51     2    28    1
    52     4    34    1
    53     4    30    1
