@<TRIPOS>MOLECULE
*****
 50 53 0 0 0
SMALL
GASTEIGER

@<TRIPOS>ATOM
     1 C         -0.351226   -1.336895   1.6912 C.3        1 UNL1     0.1889
     2 C         -0.472559   -0.972232   0.187126 C.3        1 UNL1     0.1342
     3 C         -1.911165   -0.942076   -0.351361 C.3        1 UNL1     0.1174
     4 C         -2.810123   -1.997315   0.297842 C.3        1 UNL1     0.1456
     5 C         -2.664593   -2.034793   1.830088 C.3        1 UNL1     0.2326
     6 O         -1.3032   -2.268459   2.183469 O.3        1 UNL1     -0.3076
     7 O         -3.230936   -0.886825   2.487923 O.3        1 UNL1     -0.4605
     8 C         -3.747335   -1.106146   3.752343 C.ar        1 UNL1     0.1310
     9 C         -4.575214   -2.173847   4.115565 C.ar        1 UNL1     0.0226
     10 C         -5.03433   -2.318986   5.430118 C.ar        1 UNL1     0.1343
     11 C         -4.656921   -1.412217   6.41965 C.ar        1 UNL1     0.1007
     12 C         -3.86401   -0.319109   6.060222 C.ar        1 UNL1     0.1389
     13 C         -3.404664   -0.171934   4.73781 C.ar        1 UNL1     0.0229
     14 C         -5.044183   -1.56423   7.841295 C.2        1 UNL1     0.1740
     15 C         -4.369761   -0.628988   8.801517 C.3        1 UNL1     0.0520
     16 C         -4.285023   0.746763   8.154921 C.3        1 UNL1     0.1322
     17 O         -3.522513   0.691158   6.929133 O.3        1 UNL1     -0.4828
     18 C         -5.637161   1.452946   8.029412 C.ar        1 UNL1     -0.0067
     19 C         -6.006349   2.027861   6.795967 C.ar        1 UNL1     -0.0516
     20 C         -7.214581   2.721857   6.659925 C.ar        1 UNL1     -0.0198
     21 C         -8.056991   2.853939   7.749295 C.ar        1 UNL1     0.1169
     22 C         -7.736621   2.270202   8.968087 C.ar        1 UNL1     -0.0198
     23 C         -6.537067   1.560368   9.09947 C.ar        1 UNL1     -0.0516
     24 O         -9.207359   3.569029   7.588988 O.3        1 UNL1     -0.5068
     25 O         -5.802825   -2.441575   8.245292 O.2        1 UNL1     -0.2917
     26 O         -5.839849   -3.38172   5.718775 O.3        1 UNL1     -0.5058
     27 O         -0.238161   -0.205627   2.539868 O.3        1 UNL1     -0.3648
     28 O         0.251411   -1.952332   -0.579671 O.3        1 UNL1     -0.3841
     29 O         -2.456212   0.376302   -0.268079 O.3        1 UNL1     -0.3863
     30 O         -2.473135   -3.297734   -0.232289 O.3        1 UNL1     -0.3829
     31 H         0.603994   -1.859832   1.810232 H        1 UNL1     0.0937
     32 H         0.0   0.0   0.0 H        1 UNL1     0.0671
     33 H         -1.872383   -1.174491   -1.424766 H        1 UNL1     0.0649
     34 H         -3.857495   -1.807058   0.038581 H        1 UNL1     0.0683
     35 H         -3.229073   -2.927369   2.127658 H        1 UNL1     0.1085
     36 H         -4.858454   -2.942982   3.405405 H        1 UNL1     0.0691
     37 H         -2.789475   0.688475   4.483386 H        1 UNL1     0.0691
     38 H         -3.371932   -1.030076   9.008864 H        1 UNL1     0.0385
     39 H         -4.933158   -0.611089   9.740688 H        1 UNL1     0.0385
     40 H         -3.686412   1.381671   8.822061 H        1 UNL1     0.0789
     41 H         -5.358205   1.945972   5.928296 H        1 UNL1     0.0623
     42 H         -7.482494   3.170914   5.706729 H        1 UNL1     0.0654
     43 H         -8.3961   2.354661   9.823577 H        1 UNL1     0.0654
     44 H         -6.323656   1.108276   10.063272 H        1 UNL1     0.0623
     45 H         -8.971764   4.476157   7.335354 H        1 UNL1     0.2921
     46 H         -5.443496   -3.903034   6.4347 H        1 UNL1     0.2922
     47 H         0.511167   0.342834   2.268654 H        1 UNL1     0.2126
     48 H         1.183845   -1.897478   -0.294556 H        1 UNL1     0.2101
     49 H         -2.009326   0.958853   -0.902682 H        1 UNL1     0.2100
     50 H         -2.702904   -3.3039   -1.184592 H        1 UNL1     0.2102
@<TRIPOS>BOND
     1     1     2    1
     2     1     6    1
     3     2     3    1
     4     3     4    1
     5     3    29    1
     6     3    33    1
     7     4     5    1
     8     5     6    1
     9     5     7    1
    10     5    35    1
    11     7     8    1
    12     8     9   ar
    13     8    13   ar
    14     9    10   ar
    15     9    36    1
    16    10    11   ar
    17    10    26    1
    18    11    12   ar
    19    11    14    1
    20    12    13   ar
    21    12    17    1
    22    13    37    1
    23    14    15    1
    24    14    25    2
    25    15    16    1
    26    15    38    1
    27    15    39    1
    28    16    17    1
    29    16    18    1
    30    16    40    1
    31    18    19   ar
    32    18    23   ar
    33    19    20   ar
    34    19    41    1
    35    20    21   ar
    36    20    42    1
    37    21    22   ar
    38    21    24    1
    39    22    23   ar
    40    22    43    1
    41    23    44    1
    42    24    45    1
    43    26    46    1
    44    27    47    1
    45    28    48    1
    46    29    49    1
    47    30    50    1
    48     1    31    1
    49     1    27    1
    50     2    32    1
    51     2    28    1
    52     4    34    1
    53     4    30    1
