@<TRIPOS>MOLECULE
*****
 50 53 0 0 0
SMALL
GASTEIGER

@<TRIPOS>ATOM
     1 C         -1.320937   -1.601777   0.678411 C.3        1 UNL1     0.1889
     2 C         -0.729918   -0.694541   -0.434045 C.3        1 UNL1     0.1342
     3 C         -1.77219   0.106378   -1.229447 C.3        1 UNL1     0.1174
     4 C         -3.085132   -0.656311   -1.423369 C.3        1 UNL1     0.1456
     5 C         -3.586205   -1.309148   -0.12218 C.3        1 UNL1     0.2326
     6 O         -2.586828   -2.181767   0.399979 O.3        1 UNL1     -0.3076
     7 O         -4.070675   -0.360376   0.84552 O.3        1 UNL1     -0.4605
     8 C         -5.354738   0.111844   0.641268 C.ar        1 UNL1     0.1310
     9 C         -6.161887   -0.186316   -0.461869 C.ar        1 UNL1     0.0226
     10 C         -7.45915   0.32882   -0.569779 C.ar        1 UNL1     0.1343
     11 C         -7.989873   1.136162   0.435393 C.ar        1 UNL1     0.1007
     12 C         -7.178868   1.47426   1.522014 C.ar        1 UNL1     0.1389
     13 C         -5.873577   0.958314   1.629 C.ar        1 UNL1     0.0229
     14 C         -9.383063   1.638833   0.41305 C.2        1 UNL1     0.1740
     15 C         -9.854503   2.301528   1.674053 C.3        1 UNL1     0.0520
     16 C         -8.720817   3.157925   2.221133 C.3        1 UNL1     0.1322
     17 O         -7.561192   2.347535   2.513723 O.3        1 UNL1     -0.4828
     18 C         -8.428683   4.40342   1.380822 C.ar        1 UNL1     -0.0067
     19 C         -9.491552   5.250579   1.005529 C.ar        1 UNL1     -0.0516
     20 C         -9.265808   6.371595   0.197861 C.ar        1 UNL1     -0.0198
     21 C         -7.985812   6.651496   -0.246091 C.ar        1 UNL1     0.1169
     22 C         -6.913541   5.85496   0.134176 C.ar        1 UNL1     -0.0198
     23 C         -7.136192   4.744357   0.957003 C.ar        1 UNL1     -0.0516
     24 O         -7.810288   7.730211   -1.062157 O.3        1 UNL1     -0.5068
     25 O         -10.148913   1.466596   -0.531562 O.2        1 UNL1     -0.2917
     26 O         -8.194245   0.000817   -1.67143 O.3        1 UNL1     -0.5058
     27 O         -1.288086   -1.009995   1.967404 O.3        1 UNL1     -0.3648
     28 O         -0.021401   -1.525766   -1.372008 O.3        1 UNL1     -0.3841
     29 O         -1.963679   1.40064   -0.654688 O.3        1 UNL1     -0.3863
     30 O         -2.891726   -1.687774   -2.415522 O.3        1 UNL1     -0.3829
     31 H         -0.655355   -2.46783   0.762266 H        1 UNL1     0.0937
     32 H         0.0   0.0   0.0 H        1 UNL1     0.0671
     33 H         -1.360434   0.290205   -2.231638 H        1 UNL1     0.0649
     34 H         -3.856529   0.019194   -1.809428 H        1 UNL1     0.0683
     35 H         -4.422333   -1.940527   -0.447955 H        1 UNL1     0.1085
     36 H         -5.827784   -0.852984   -1.249301 H        1 UNL1     0.0691
     37 H         -5.26204   1.237551   2.484302 H        1 UNL1     0.0691
     38 H         -10.128973   1.511204   2.380863 H        1 UNL1     0.0385
     39 H         -10.751066   2.891717   1.455809 H        1 UNL1     0.0385
     40 H         -9.044801   3.537095   3.199798 H        1 UNL1     0.0789
     41 H         -10.506836   5.047329   1.333459 H        1 UNL1     0.0623
     42 H         -10.095499   7.010446   -0.094531 H        1 UNL1     0.0654
     43 H         -5.90485   6.073609   -0.19544 H        1 UNL1     0.0654
     44 H         -6.273798   4.150056   1.243232 H        1 UNL1     0.0623
     45 H         -8.666642   8.174485   -1.171686 H        1 UNL1     0.2921
     46 H         -7.66481   -0.562651   -2.257616 H        1 UNL1     0.2922
     47 H         -0.390134   -1.038641   2.326183 H        1 UNL1     0.2126
     48 H         0.924065   -1.294647   -1.291941 H        1 UNL1     0.2101
     49 H         -2.686438   1.86056   -1.110635 H        1 UNL1     0.2100
     50 H         -3.553563   -1.551713   -3.124868 H        1 UNL1     0.2102
@<TRIPOS>BOND
     1     1     2    1
     2     1     6    1
     3     2     3    1
     4     3     4    1
     5     3    29    1
     6     3    33    1
     7     4     5    1
     8     5     6    1
     9     5     7    1
    10     5    35    1
    11     7     8    1
    12     8     9   ar
    13     8    13   ar
    14     9    10   ar
    15     9    36    1
    16    10    11   ar
    17    10    26    1
    18    11    12   ar
    19    11    14    1
    20    12    13   ar
    21    12    17    1
    22    13    37    1
    23    14    15    1
    24    14    25    2
    25    15    16    1
    26    15    38    1
    27    15    39    1
    28    16    17    1
    29    16    18    1
    30    16    40    1
    31    18    19   ar
    32    18    23   ar
    33    19    20   ar
    34    19    41    1
    35    20    21   ar
    36    20    42    1
    37    21    22   ar
    38    21    24    1
    39    22    23   ar
    40    22    43    1
    41    23    44    1
    42    24    45    1
    43    26    46    1
    44    27    47    1
    45    28    48    1
    46    29    49    1
    47    30    50    1
    48     1    31    1
    49     1    27    1
    50     2    32    1
    51     2    28    1
    52     4    34    1
    53     4    30    1
