@<TRIPOS>MOLECULE
*****
 50 53 0 0 0
SMALL
GASTEIGER

@<TRIPOS>ATOM
     1 C         -0.338589   -1.332746   1.697041 C.3        1 UNL1     0.1889
     2 C         -0.465979   -0.974467   0.191934 C.3        1 UNL1     0.1342
     3 C         -1.906092   -0.955335   -0.343017 C.3        1 UNL1     0.1174
     4 C         -2.796781   -2.013753   0.312376 C.3        1 UNL1     0.1456
     5 C         -2.647176   -2.044599   1.844379 C.3        1 UNL1     0.2326
     6 O         -1.283462   -2.268412   2.195178 O.3        1 UNL1     -0.3076
     7 O         -3.219059   -0.897754   2.499373 O.3        1 UNL1     -0.4605
     8 C         -3.785375   -1.128094   3.740243 C.ar        1 UNL1     0.1310
     9 C         -4.643112   -2.187433   4.055499 C.ar        1 UNL1     0.0226
     10 C         -5.152861   -2.345339   5.349765 C.ar        1 UNL1     0.1343
     11 C         -4.797904   -1.46043   6.367007 C.ar        1 UNL1     0.1007
     12 C         -3.97484   -0.375169   6.054665 C.ar        1 UNL1     0.1389
     13 C         -3.464537   -0.21511   4.752589 C.ar        1 UNL1     0.0229
     14 C         -5.239933   -1.628063   7.77081 C.2        1 UNL1     0.1740
     15 C         -4.586663   -0.719158   8.770149 C.3        1 UNL1     0.0520
     16 C         -4.456039   0.664875   8.149386 C.3        1 UNL1     0.1322
     17 O         -3.649641   0.61568   6.951734 O.3        1 UNL1     -0.4828
     18 C         -5.791132   1.395246   7.985642 C.ar        1 UNL1     -0.0067
     19 C         -6.103931   1.997694   6.749751 C.ar        1 UNL1     -0.0516
     20 C         -7.29503   2.713704   6.580708 C.ar        1 UNL1     -0.0198
     21 C         -8.176182   2.840458   7.639637 C.ar        1 UNL1     0.1169
     22 C         -7.911739   2.230248   8.85888 C.ar        1 UNL1     -0.0198
     23 C         -6.729382   1.498629   9.022653 C.ar        1 UNL1     -0.0516
     24 O         -9.30821   3.577032   7.448922 O.3        1 UNL1     -0.5068
     25 O         -6.026955   -2.498876   8.132426 O.2        1 UNL1     -0.2917
     26 O         -5.985415   -3.398925   5.591419 O.3        1 UNL1     -0.5058
     27 O         -0.230495   -0.197633   2.54121 O.3        1 UNL1     -0.3648
     28 O         0.2622   -1.952869   -0.573045 O.3        1 UNL1     -0.3841
     29 O         -2.459189   0.359905   -0.263257 O.3        1 UNL1     -0.3863
     30 O         -2.452972   -3.314006   -0.213768 O.3        1 UNL1     -0.3829
     31 H         0.620189   -1.849242   1.815598 H        1 UNL1     0.0937
     32 H         0.0   0.0   0.0 H        1 UNL1     0.0671
     33 H         -1.868546   -1.191507   -1.415646 H        1 UNL1     0.0649
     34 H         -3.845973   -1.831031   0.055063 H        1 UNL1     0.0683
     35 H         -3.205298   -2.939577   2.146692 H        1 UNL1     0.1085
     36 H         -4.912122   -2.940644   3.323087 H        1 UNL1     0.0691
     37 H         -2.826662   0.638828   4.534876 H        1 UNL1     0.0691
     38 H         -3.603742   -1.139907   9.007557 H        1 UNL1     0.0385
     39 H         -5.184098   -0.706509   9.688131 H        1 UNL1     0.0385
     40 H         -3.872468   1.279333   8.848246 H        1 UNL1     0.0789
     41 H         -5.424543   1.920417   5.905885 H        1 UNL1     0.0623
     42 H         -7.519307   3.183752   5.626366 H        1 UNL1     0.0654
     43 H         -8.601948   2.310494   9.690194 H        1 UNL1     0.0654
     44 H         -6.560014   1.026255   9.985473 H        1 UNL1     0.0623
     45 H         -9.048906   4.485852   7.226381 H        1 UNL1     0.2921
     46 H         -5.624948   -3.937022   6.313865 H        1 UNL1     0.2922
     47 H         0.512162   0.35663   2.263518 H        1 UNL1     0.2126
     48 H         1.197779   -1.879401   -0.302812 H        1 UNL1     0.2101
     49 H         -2.017679   0.942828   -0.901272 H        1 UNL1     0.2100
     50 H         -2.690312   -3.32708   -1.164142 H        1 UNL1     0.2102
@<TRIPOS>BOND
     1     1     2    1
     2     1     6    1
     3     2     3    1
     4     3     4    1
     5     3    29    1
     6     3    33    1
     7     4     5    1
     8     5     6    1
     9     5     7    1
    10     5    35    1
    11     7     8    1
    12     8     9   ar
    13     8    13   ar
    14     9    10   ar
    15     9    36    1
    16    10    11   ar
    17    10    26    1
    18    11    12   ar
    19    11    14    1
    20    12    13   ar
    21    12    17    1
    22    13    37    1
    23    14    15    1
    24    14    25    2
    25    15    16    1
    26    15    38    1
    27    15    39    1
    28    16    17    1
    29    16    18    1
    30    16    40    1
    31    18    19   ar
    32    18    23   ar
    33    19    20   ar
    34    19    41    1
    35    20    21   ar
    36    20    42    1
    37    21    22   ar
    38    21    24    1
    39    22    23   ar
    40    22    43    1
    41    23    44    1
    42    24    45    1
    43    26    46    1
    44    27    47    1
    45    28    48    1
    46    29    49    1
    47    30    50    1
    48     1    31    1
    49     1    27    1
    50     2    32    1
    51     2    28    1
    52     4    34    1
    53     4    30    1
