@<TRIPOS>MOLECULE
*****
 50 53 0 0 0
SMALL
GASTEIGER

@<TRIPOS>ATOM
     1 C         -0.260167   -1.260385   1.764808 C.3        1 UNL1     0.1889
     2 C         -0.550916   -0.905941   0.281644 C.3        1 UNL1     0.1342
     3 C         -2.038116   -0.711988   -0.051645 C.3        1 UNL1     0.1174
     4 C         -2.952124   -1.642597   0.7494 C.3        1 UNL1     0.1456
     5 C         -2.595555   -1.674714   2.246795 C.3        1 UNL1     0.2326
     6 O         -1.234229   -2.064187   2.41404 O.3        1 UNL1     -0.3076
     7 O         -2.9253   -0.457766   2.940789 O.3        1 UNL1     -0.4605
     8 C         -3.290028   -0.596489   4.267913 C.ar        1 UNL1     0.1310
     9 C         -4.18212   -1.551376   4.767576 C.ar        1 UNL1     0.0226
     10 C         -4.47501   -1.622742   6.134698 C.ar        1 UNL1     0.1343
     11 C         -3.864053   -0.755444   7.039335 C.ar        1 UNL1     0.1007
     12 C         -3.002857   0.22894   6.547286 C.ar        1 UNL1     0.1389
     13 C         -2.710553   0.302196   5.172287 C.ar        1 UNL1     0.0229
     14 C         -4.072717   -0.840928   8.503338 C.2        1 UNL1     0.1740
     15 C         -3.170081   0.018322   9.339093 C.3        1 UNL1     0.0520
     16 C         -3.01073   1.365163   8.647295 C.3        1 UNL1     0.1322
     17 O         -2.431155   1.201736   7.33411 O.3        1 UNL1     -0.4828
     18 C         -4.274507   2.228019   8.680018 C.ar        1 UNL1     -0.0067
     19 C         -4.211678   3.565303   8.237371 C.ar        1 UNL1     -0.0516
     20 C         -5.337156   4.395703   8.298173 C.ar        1 UNL1     -0.0198
     21 C         -6.526671   3.903997   8.80523 C.ar        1 UNL1     0.1169
     22 C         -6.62875   2.581781   9.21774 C.ar        1 UNL1     -0.0198
     23 C         -5.508382   1.745857   9.139873 C.ar        1 UNL1     -0.0516
     24 O         -7.591262   4.753008   8.884148 O.3        1 UNL1     -0.5068
     25 O         -4.868736   -1.614714   9.028784 O.2        1 UNL1     -0.2917
     26 O         -5.354496   -2.576376   6.557393 O.3        1 UNL1     -0.5058
     27 O         0.103135   -0.138407   2.553456 O.3        1 UNL1     -0.3648
     28 O         -0.062208   -1.976679   -0.547447 O.3        1 UNL1     -0.3841
     29 O         -2.408816   0.663156   0.065374 O.3        1 UNL1     -0.3863
     30 O         -2.847395   -2.981606   0.218573 O.3        1 UNL1     -0.3829
     31 H         0.634951   -1.891923   1.765839 H        1 UNL1     0.0937
     32 H         0.0   0.0   0.0 H        1 UNL1     0.0671
     33 H         -2.179636   -0.963095   -1.112134 H        1 UNL1     0.0649
     34 H         -3.996433   -1.332365   0.632883 H        1 UNL1     0.0683
     35 H         -3.211867   -2.488975   2.648066 H        1 UNL1     0.1085
     36 H         -4.646757   -2.289806   4.123407 H        1 UNL1     0.0691
     37 H         -2.037658   1.078479   4.814388 H        1 UNL1     0.0691
     38 H         -2.207915   -0.497778   9.425142 H        1 UNL1     0.0385
     39 H         -3.59657   0.116496   10.343208 H        1 UNL1     0.0385
     40 H         -2.257408   1.931654   9.21131 H        1 UNL1     0.0789
     41 H         -3.287241   3.97772   7.843696 H        1 UNL1     0.0623
     42 H         -5.272841   5.428546   7.964841 H        1 UNL1     0.0654
     43 H         -7.559456   2.18216   9.602446 H        1 UNL1     0.0654
     44 H         -5.626894   0.71548   9.461001 H        1 UNL1     0.0623
     45 H         -7.379076   5.452365   9.523361 H        1 UNL1     0.2921
     46 H         -5.056331   -2.937587   7.40712 H        1 UNL1     0.2922
     47 H         0.851857   0.32453   2.152253 H        1 UNL1     0.2126
     48 H         0.91244   -1.915979   -0.537004 H        1 UNL1     0.2101
     49 H         -2.160893   1.141614   -0.741723 H        1 UNL1     0.2100
     50 H         -3.235171   -2.980481   -0.681061 H        1 UNL1     0.2102
@<TRIPOS>BOND
     1     1     2    1
     2     1     6    1
     3     2     3    1
     4     3     4    1
     5     3    29    1
     6     3    33    1
     7     4     5    1
     8     5     6    1
     9     5     7    1
    10     5    35    1
    11     7     8    1
    12     8     9   ar
    13     8    13   ar
    14     9    10   ar
    15     9    36    1
    16    10    11   ar
    17    10    26    1
    18    11    12   ar
    19    11    14    1
    20    12    13   ar
    21    12    17    1
    22    13    37    1
    23    14    15    1
    24    14    25    2
    25    15    16    1
    26    15    38    1
    27    15    39    1
    28    16    17    1
    29    16    18    1
    30    16    40    1
    31    18    19   ar
    32    18    23   ar
    33    19    20   ar
    34    19    41    1
    35    20    21   ar
    36    20    42    1
    37    21    22   ar
    38    21    24    1
    39    22    23   ar
    40    22    43    1
    41    23    44    1
    42    24    45    1
    43    26    46    1
    44    27    47    1
    45    28    48    1
    46    29    49    1
    47    30    50    1
    48     1    31    1
    49     1    27    1
    50     2    32    1
    51     2    28    1
    52     4    34    1
    53     4    30    1
