@<TRIPOS>MOLECULE
*****
 50 53 0 0 0
SMALL
GASTEIGER

@<TRIPOS>ATOM
     1 C         0.741278   1.72571   1.115005 C.3        1 UNL1     0.1889
     2 C         0.953657   0.516705   0.164667 C.3        1 UNL1     0.1342
     3 C         1.998666   -0.501483   0.646036 C.3        1 UNL1     0.1174
     4 C         3.164234   0.152173   1.392562 C.3        1 UNL1     0.1456
     5 C         2.693548   1.180206   2.437534 C.3        1 UNL1     0.2326
     6 O         1.893361   2.179615   1.810038 O.3        1 UNL1     -0.3076
     7 O         2.058419   0.583582   3.582947 O.3        1 UNL1     -0.4605
     8 C         2.064   -0.79899   3.62759 C.ar        1 UNL1     0.1310
     9 C         2.584283   -1.574013   4.669677 C.ar        1 UNL1     0.0226
     10 C         2.527158   -2.972248   4.629939 C.ar        1 UNL1     0.1343
     11 C         1.926393   -3.629475   3.557104 C.ar        1 UNL1     0.1007
     12 C         1.440047   -2.867578   2.491382 C.ar        1 UNL1     0.1389
     13 C         1.499979   -1.461761   2.530351 C.ar        1 UNL1     0.0229
     14 C         1.763766   -5.100793   3.502972 C.2        1 UNL1     0.1740
     15 C         0.900935   -5.618128   2.389672 C.3        1 UNL1     0.0520
     16 C         1.205368   -4.816287   1.131765 C.3        1 UNL1     0.1322
     17 O         0.927003   -3.413742   1.337797 O.3        1 UNL1     -0.4828
     18 C         2.583576   -5.108269   0.533423 C.ar        1 UNL1     -0.0067
     19 C         3.087221   -4.273609   -0.48535 C.ar        1 UNL1     -0.0516
     20 C         4.322921   -4.540117   -1.086999 C.ar        1 UNL1     -0.0198
     21 C         5.059487   -5.639903   -0.684795 C.ar        1 UNL1     0.1169
     22 C         4.605567   -6.461233   0.339028 C.ar        1 UNL1     -0.0198
     23 C         3.378483   -6.184368   0.953574 C.ar        1 UNL1     -0.0516
     24 O         6.240592   -5.889334   -1.319755 O.3        1 UNL1     -0.5068
     25 O         2.226522   -5.863678   4.346979 O.2        1 UNL1     -0.2917
     26 O         3.053734   -3.66973   5.677708 O.3        1 UNL1     -0.5058
     27 O         -0.368866   1.57273   1.985042 O.3        1 UNL1     -0.3648
     28 O         1.39547   1.012678   -1.112642 O.3        1 UNL1     -0.3841
     29 O         1.37881   -1.548363   1.395671 O.3        1 UNL1     -0.3863
     30 O         4.022754   0.817634   0.440829 O.3        1 UNL1     -0.3829
     31 H         0.472022   2.577982   0.481591 H        1 UNL1     0.0937
     32 H         0.0   -0.0   0.0 H        1 UNL1     0.0671
     33 H         2.42399   -0.990545   -0.241453 H        1 UNL1     0.0649
     34 H         3.768981   -0.615719   1.887561 H        1 UNL1     0.0683
     35 H         3.619871   1.670604   2.762055 H        1 UNL1     0.1085
     36 H         3.013734   -1.121958   5.556998 H        1 UNL1     0.0691
     37 H         1.11533   -0.891583   1.687478 H        1 UNL1     0.0691
     38 H         -0.143513   -5.493054   2.694652 H        1 UNL1     0.0385
     39 H         1.092133   -6.68821   2.254967 H        1 UNL1     0.0385
     40 H         0.483547   -5.129771   0.36546 H        1 UNL1     0.0789
     41 H         2.523952   -3.409377   -0.825177 H        1 UNL1     0.0623
     42 H         4.694971   -3.89585   -1.879786 H        1 UNL1     0.0654
     43 H         5.181368   -7.31646   0.672123 H        1 UNL1     0.0654
     44 H         3.059539   -6.840943   1.757334 H        1 UNL1     0.0623
     45 H         6.812931   -6.391006   -0.71687 H        1 UNL1     0.2921
     46 H         2.843253   -3.214099   6.508076 H        1 UNL1     0.2922
     47 H         -0.237753   0.808867   2.563991 H        1 UNL1     0.2126
     48 H         0.591184   1.186191   -1.638711 H        1 UNL1     0.2101
     49 H         1.862606   -2.379323   1.264363 H        1 UNL1     0.2100
     50 H         3.798358   1.771213   0.447647 H        1 UNL1     0.2102
@<TRIPOS>BOND
     1     1     2    1
     2     1     6    1
     3     2     3    1
     4     3     4    1
     5     3    29    1
     6     3    33    1
     7     4     5    1
     8     5     6    1
     9     5     7    1
    10     5    35    1
    11     7     8    1
    12     8     9   ar
    13     8    13   ar
    14     9    10   ar
    15     9    36    1
    16    10    11   ar
    17    10    26    1
    18    11    12   ar
    19    11    14    1
    20    12    13   ar
    21    12    17    1
    22    13    37    1
    23    14    15    1
    24    14    25    2
    25    15    16    1
    26    15    38    1
    27    15    39    1
    28    16    17    1
    29    16    18    1
    30    16    40    1
    31    18    19   ar
    32    18    23   ar
    33    19    20   ar
    34    19    41    1
    35    20    21   ar
    36    20    42    1
    37    21    22   ar
    38    21    24    1
    39    22    23   ar
    40    22    43    1
    41    23    44    1
    42    24    45    1
    43    26    46    1
    44    27    47    1
    45    28    48    1
    46    29    49    1
    47    30    50    1
    48     1    31    1
    49     1    27    1
    50     2    32    1
    51     2    28    1
    52     4    34    1
    53     4    30    1
