@<TRIPOS>MOLECULE
*****
 50 53 0 0 0
SMALL
GASTEIGER

@<TRIPOS>ATOM
     1 C         -0.383353   -1.350713   1.673147 C.3        1 UNL1     0.1889
     2 C         -0.489355   -0.966563   0.172769 C.3        1 UNL1     0.1342
     3 C         -1.923885   -0.906787   -0.374055 C.3        1 UNL1     0.1174
     4 C         -2.843811   -1.954831   0.25718 C.3        1 UNL1     0.1456
     5 C         -2.708509   -2.012583   1.789734 C.3        1 UNL1     0.2326
     6 O         -1.353307   -2.272412   2.148599 O.3        1 UNL1     -0.3076
     7 O         -3.260358   -0.863355   2.457611 O.3        1 UNL1     -0.4605
     8 C         -3.788143   -1.089047   3.716195 C.ar        1 UNL1     0.1310
     9 C         -4.635411   -2.147359   4.06176 C.ar        1 UNL1     0.0226
     10 C         -5.105038   -2.3004   5.371695 C.ar        1 UNL1     0.1343
     11 C         -4.719248   -1.411506   6.374129 C.ar        1 UNL1     0.1007
     12 C         -3.906557   -0.327269   6.032445 C.ar        1 UNL1     0.1389
     13 C         -3.436618   -0.172106   4.714677 C.ar        1 UNL1     0.0229
     14 C         -5.117814   -1.573837   7.791503 C.2        1 UNL1     0.1740
     15 C         -4.434413   -0.660948   8.766771 C.3        1 UNL1     0.0520
     16 C         -4.323427   0.720716   8.136975 C.3        1 UNL1     0.1322
     17 O         -3.554247   0.667095   6.915272 O.3        1 UNL1     -0.4828
     18 C         -5.663175   1.450152   8.011592 C.ar        1 UNL1     -0.0067
     19 C         -6.015298   2.045365   6.782793 C.ar        1 UNL1     -0.0516
     20 C         -7.211293   2.760406   6.647608 C.ar        1 UNL1     -0.0198
     21 C         -8.05827   2.89338   7.733322 C.ar        1 UNL1     0.1169
     22 C         -7.75501   2.29031   8.947067 C.ar        1 UNL1     -0.0198
     23 C         -6.567917   1.559629   9.077354 C.ar        1 UNL1     -0.0516
     24 O         -9.195918   3.628856   7.574474 O.3        1 UNL1     -0.5068
     25 O         -5.893037   -2.443429   8.180506 O.2        1 UNL1     -0.2917
     26 O         -5.9294   -3.353235   5.642896 O.3        1 UNL1     -0.5058
     27 O         -0.25736   -0.231431   2.535772 O.3        1 UNL1     -0.3648
     28 O         0.223489   -1.949239   -0.601122 O.3        1 UNL1     -0.3841
     29 O         -2.448089   0.419191   -0.278541 O.3        1 UNL1     -0.3863
     30 O         -2.524545   -3.254255   -0.286196 O.3        1 UNL1     -0.3829
     31 H         0.562537   -1.890427   1.791804 H        1 UNL1     0.0937
     32 H         0.0   0.0   0.0 H        1 UNL1     0.0671
     33 H         -1.882135   -1.127229   -1.449872 H        1 UNL1     0.0649
     34 H         -3.88633   -1.744597   -0.006177 H        1 UNL1     0.0683
     35 H         -3.289179   -2.899308   2.073319 H        1 UNL1     0.1085
     36 H         -4.926574   -2.903441   3.340868 H        1 UNL1     0.0691
     37 H         -2.806037   0.681132   4.474163 H        1 UNL1     0.0691
     38 H         -3.444508   -1.080562   8.975431 H        1 UNL1     0.0385
     39 H         -5.003322   -0.644902   9.702647 H        1 UNL1     0.0385
     40 H         -3.718836   1.337988   8.815183 H        1 UNL1     0.0789
     41 H         -5.363136   1.963131   5.918171 H        1 UNL1     0.0623
     42 H         -7.465944   3.224866   5.698166 H        1 UNL1     0.0654
     43 H         -8.418387   2.37544   9.799472 H        1 UNL1     0.0654
     44 H         -6.367876   1.092894   10.037035 H        1 UNL1     0.0623
     45 H         -9.110239   4.154868   6.762879 H        1 UNL1     0.2921
     46 H         -5.546009   -3.889245   6.355017 H        1 UNL1     0.2922
     47 H         0.502409   0.307942   2.275605 H        1 UNL1     0.2126
     48 H         1.154882   -1.91285   -0.30972 H        1 UNL1     0.2101
     49 H         -1.987889   1.001802   -0.903501 H        1 UNL1     0.2100
     50 H         -2.748411   -3.245555   -1.239884 H        1 UNL1     0.2102
@<TRIPOS>BOND
     1     1     2    1
     2     1     6    1
     3     2     3    1
     4     3     4    1
     5     3    29    1
     6     3    33    1
     7     4     5    1
     8     5     6    1
     9     5     7    1
    10     5    35    1
    11     7     8    1
    12     8     9   ar
    13     8    13   ar
    14     9    10   ar
    15     9    36    1
    16    10    11   ar
    17    10    26    1
    18    11    12   ar
    19    11    14    1
    20    12    13   ar
    21    12    17    1
    22    13    37    1
    23    14    15    1
    24    14    25    2
    25    15    16    1
    26    15    38    1
    27    15    39    1
    28    16    17    1
    29    16    18    1
    30    16    40    1
    31    18    19   ar
    32    18    23   ar
    33    19    20   ar
    34    19    41    1
    35    20    21   ar
    36    20    42    1
    37    21    22   ar
    38    21    24    1
    39    22    23   ar
    40    22    43    1
    41    23    44    1
    42    24    45    1
    43    26    46    1
    44    27    47    1
    45    28    48    1
    46    29    49    1
    47    30    50    1
    48     1    31    1
    49     1    27    1
    50     2    32    1
    51     2    28    1
    52     4    34    1
    53     4    30    1
