@<TRIPOS>MOLECULE
*****
 50 53 0 0 0
SMALL
GASTEIGER

@<TRIPOS>ATOM
     1 C         0.95868   -1.558844   1.192369 C.3        1 UNL1     0.1889
     2 C         -0.271677   -0.695704   0.803585 C.3        1 UNL1     0.1342
     3 C         -0.891439   0.097102   1.964541 C.3        1 UNL1     0.1174
     4 C         -0.819377   -0.649999   3.298619 C.3        1 UNL1     0.1456
     5 C         0.571823   -1.254555   3.56213 C.3        1 UNL1     0.2326
     6 O         0.933128   -2.126699   2.493631 O.3        1 UNL1     -0.3076
     7 O         1.579322   -0.26894   3.853386 O.3        1 UNL1     -0.4605
     8 C         2.581229   -0.664378   4.721337 C.ar        1 UNL1     0.1310
     9 C         2.393365   -1.056139   6.051198 C.ar        1 UNL1     0.0226
     10 C         3.4731   -1.457157   6.846974 C.ar        1 UNL1     0.1343
     11 C         4.765036   -1.498921   6.324483 C.ar        1 UNL1     0.1007
     12 C         4.970915   -1.070913   5.01025 C.ar        1 UNL1     0.1389
     13 C         3.885451   -0.665218   4.211119 C.ar        1 UNL1     0.0229
     14 C         5.929539   -1.993928   7.094583 C.2        1 UNL1     0.1740
     15 C         7.195248   -2.179411   6.310283 C.3        1 UNL1     0.0520
     16 C         7.335207   -1.015304   5.339086 C.3        1 UNL1     0.1322
     17 O         6.213743   -0.968615   4.429576 O.3        1 UNL1     -0.4828
     18 C         7.65737   0.31816   6.017915 C.ar        1 UNL1     -0.0067
     19 C         8.859426   0.453855   6.742389 C.ar        1 UNL1     -0.0516
     20 C         9.162577   1.643923   7.414551 C.ar        1 UNL1     -0.0198
     21 C         8.27055   2.700632   7.376098 C.ar        1 UNL1     0.1169
     22 C         7.094223   2.60907   6.643493 C.ar        1 UNL1     -0.0198
     23 C         6.799419   1.425628   5.956026 C.ar        1 UNL1     -0.0516
     24 O         8.582213   3.830315   8.074011 O.3        1 UNL1     -0.5068
     25 O         5.869949   -2.315579   8.278422 O.2        1 UNL1     -0.2917
     26 O         3.222523   -1.826203   8.136393 O.3        1 UNL1     -0.5058
     27 O         2.200209   -0.928467   0.920306 O.3        1 UNL1     -0.3648
     28 O         -1.294354   -1.566529   0.285413 O.3        1 UNL1     -0.3841
     29 O         -0.334586   1.411266   2.035393 O.3        1 UNL1     -0.3863
     30 O         -1.795532   -1.714335   3.298868 O.3        1 UNL1     -0.3829
     31 H         0.949315   -2.432492   0.531514 H        1 UNL1     0.0937
     32 H         0.0   0.0   0.0 H        1 UNL1     0.0671
     33 H         -1.957092   0.243519   1.739452 H        1 UNL1     0.0649
     34 H         -1.08163   0.025658   4.120271 H        1 UNL1     0.0683
     35 H         0.423697   -1.882115   4.449883 H        1 UNL1     0.1085
     36 H         1.406596   -1.099   6.499049 H        1 UNL1     0.0691
     37 H         4.072451   -0.33549   3.191412 H        1 UNL1     0.0691
     38 H         7.117169   -3.132296   5.776018 H        1 UNL1     0.0385
     39 H         8.04083   -2.244238   7.003513 H        1 UNL1     0.0385
     40 H         8.200224   -1.231221   4.697491 H        1 UNL1     0.0789
     41 H         9.571878   -0.364219   6.795476 H        1 UNL1     0.0623
     42 H         10.087204   1.732067   7.979623 H        1 UNL1     0.0654
     43 H         6.395673   3.43582   6.594269 H        1 UNL1     0.0654
     44 H         5.876539   1.392745   5.385013 H        1 UNL1     0.0623
     45 H         9.246533   3.603026   8.744634 H        1 UNL1     0.2921
     46 H         3.712263   -2.638307   8.341462 H        1 UNL1     0.2922
     47 H         2.476849   -0.393148   1.677118 H        1 UNL1     0.2126
     48 H         -2.140928   -1.25963   0.663379 H        1 UNL1     0.2101
     49 H         0.36543   1.437294   2.707028 H        1 UNL1     0.2100
     50 H         -1.323472   -2.556436   3.132323 H        1 UNL1     0.2102
@<TRIPOS>BOND
     1     1     2    1
     2     1     6    1
     3     2     3    1
     4     3     4    1
     5     3    29    1
     6     3    33    1
     7     4     5    1
     8     5     6    1
     9     5     7    1
    10     5    35    1
    11     7     8    1
    12     8     9   ar
    13     8    13   ar
    14     9    10   ar
    15     9    36    1
    16    10    11   ar
    17    10    26    1
    18    11    12   ar
    19    11    14    1
    20    12    13   ar
    21    12    17    1
    22    13    37    1
    23    14    15    1
    24    14    25    2
    25    15    16    1
    26    15    38    1
    27    15    39    1
    28    16    17    1
    29    16    18    1
    30    16    40    1
    31    18    19   ar
    32    18    23   ar
    33    19    20   ar
    34    19    41    1
    35    20    21   ar
    36    20    42    1
    37    21    22   ar
    38    21    24    1
    39    22    23   ar
    40    22    43    1
    41    23    44    1
    42    24    45    1
    43    26    46    1
    44    27    47    1
    45    28    48    1
    46    29    49    1
    47    30    50    1
    48     1    31    1
    49     1    27    1
    50     2    32    1
    51     2    28    1
    52     4    34    1
    53     4    30    1
