@<TRIPOS>MOLECULE
*****
 50 53 0 0 0
SMALL
GASTEIGER

@<TRIPOS>ATOM
     1 C         -0.327117   -1.366997   1.671861 C.3        1 UNL1     0.1889
     2 C         -0.462486   -0.979352   0.174748 C.3        1 UNL1     0.1342
     3 C         -1.905128   -0.953596   -0.353065 C.3        1 UNL1     0.1174
     4 C         -2.789931   -2.027222   0.285346 C.3        1 UNL1     0.1456
     5 C         -2.633091   -2.08797   1.81573 C.3        1 UNL1     0.2326
     6 O         -1.267163   -2.314932   2.155728 O.3        1 UNL1     -0.3076
     7 O         -3.204953   -0.955889   2.495941 O.3        1 UNL1     -0.4605
     8 C         -3.72092   -1.202641   3.755472 C.ar        1 UNL1     0.1310
     9 C         -4.544093   -2.281102   4.096954 C.ar        1 UNL1     0.0226
     10 C         -5.003138   -2.454424   5.408114 C.ar        1 UNL1     0.1343
     11 C         -4.63031   -1.565796   6.415675 C.ar        1 UNL1     0.1007
     12 C         -3.842222   -0.462168   6.078472 C.ar        1 UNL1     0.1389
     13 C         -3.382953   -0.286654   4.759496 C.ar        1 UNL1     0.0229
     14 C         -5.017518   -1.747793   7.833808 C.2        1 UNL1     0.1740
     15 C         -4.347797   -0.828765   8.812793 C.3        1 UNL1     0.0520
     16 C         -4.269032   0.559936   8.193711 C.3        1 UNL1     0.1322
     17 O         -3.505721   0.532171   6.967474 O.3        1 UNL1     -0.4828
     18 C         -5.624314   1.262323   8.081527 C.ar        1 UNL1     -0.0067
     19 C         -5.744886   2.409221   7.270169 C.ar        1 UNL1     -0.0516
     20 C         -6.95775   3.102958   7.182697 C.ar        1 UNL1     -0.0198
     21 C         -8.052889   2.665163   7.90577 C.ar        1 UNL1     0.1169
     22 C         -7.974536   1.51976   8.687277 C.ar        1 UNL1     -0.0198
     23 C         -6.766918   0.815234   8.760469 C.ar        1 UNL1     -0.0516
     24 O         -9.206728   3.388052   7.825228 O.3        1 UNL1     -0.5068
     25 O         -5.77234   -2.636432   8.219878 O.2        1 UNL1     -0.2917
     26 O         -5.803939   -3.526334   5.675157 O.3        1 UNL1     -0.5058
     27 O         -0.218098   -0.248519   2.537835 O.3        1 UNL1     -0.3648
     28 O         0.264709   -1.940417   -0.61281 O.3        1 UNL1     -0.3841
     29 O         -2.461339   0.358282   -0.244721 O.3        1 UNL1     -0.3863
     30 O         -2.445129   -3.315858   -0.268026 O.3        1 UNL1     -0.3829
     31 H         0.633574   -1.8831   1.775738 H        1 UNL1     0.0937
     32 H         0.0   0.0   0.0 H        1 UNL1     0.0671
     33 H         -1.871965   -1.168389   -1.430322 H        1 UNL1     0.0649
     34 H         -3.840795   -1.842328   0.036549 H        1 UNL1     0.0683
     35 H         -3.187414   -2.990287   2.102834 H        1 UNL1     0.1085
     36 H         -4.823506   -3.037249   3.371496 H        1 UNL1     0.0691
     37 H         -2.771573   0.581429   4.522556 H        1 UNL1     0.0691
     38 H         -3.348246   -1.229357   9.01267 H        1 UNL1     0.0385
     39 H         -4.911694   -0.832097   9.751828 H        1 UNL1     0.0385
     40 H         -3.67362   1.184173   8.873662 H        1 UNL1     0.0789
     41 H         -4.897421   2.778351   6.699909 H        1 UNL1     0.0623
     42 H         -7.034795   3.992863   6.562903 H        1 UNL1     0.0654
     43 H         -8.830202   1.159518   9.245822 H        1 UNL1     0.0654
     44 H         -6.744508   -0.081378   9.372376 H        1 UNL1     0.0623
     45 H         -9.03671   4.277208   8.176245 H        1 UNL1     0.2921
     46 H         -5.417472   -4.047041   6.396904 H        1 UNL1     0.2922
     47 H         0.511429   0.321814   2.257886 H        1 UNL1     0.2126
     48 H         1.209714   -1.820893   -0.397376 H        1 UNL1     0.2101
     49 H         -2.030354   0.952889   -0.879141 H        1 UNL1     0.2100
     50 H         -2.70761   -3.31869   -1.211852 H        1 UNL1     0.2102
@<TRIPOS>BOND
     1     1     2    1
     2     1     6    1
     3     2     3    1
     4     3     4    1
     5     3    29    1
     6     3    33    1
     7     4     5    1
     8     5     6    1
     9     5     7    1
    10     5    35    1
    11     7     8    1
    12     8     9   ar
    13     8    13   ar
    14     9    10   ar
    15     9    36    1
    16    10    11   ar
    17    10    26    1
    18    11    12   ar
    19    11    14    1
    20    12    13   ar
    21    12    17    1
    22    13    37    1
    23    14    15    1
    24    14    25    2
    25    15    16    1
    26    15    38    1
    27    15    39    1
    28    16    17    1
    29    16    18    1
    30    16    40    1
    31    18    19   ar
    32    18    23   ar
    33    19    20   ar
    34    19    41    1
    35    20    21   ar
    36    20    42    1
    37    21    22   ar
    38    21    24    1
    39    22    23   ar
    40    22    43    1
    41    23    44    1
    42    24    45    1
    43    26    46    1
    44    27    47    1
    45    28    48    1
    46    29    49    1
    47    30    50    1
    48     1    31    1
    49     1    27    1
    50     2    32    1
    51     2    28    1
    52     4    34    1
    53     4    30    1
