@<TRIPOS>MOLECULE
*****
 50 53 0 0 0
SMALL
GASTEIGER

@<TRIPOS>ATOM
     1 C         2.066179   0.032761   0.707555 C.3        1 UNL1     0.1889
     2 C         0.661744   -0.622205   0.615238 C.3        1 UNL1     0.1342
     3 C         -0.013748   -0.884587   1.969982 C.3        1 UNL1     0.1174
     4 C         0.983778   -1.266295   3.066503 C.3        1 UNL1     0.1456
     5 C         2.213182   -0.339933   3.0945 C.3        1 UNL1     0.2326
     6 O         2.857833   -0.349202   1.822806 O.3        1 UNL1     -0.3076
     7 O         1.920891   0.986246   3.571087 O.3        1 UNL1     -0.4605
     8 C         0.582908   1.335277   3.60992 C.ar        1 UNL1     0.1310
     9 C         -0.486601   0.478277   3.328849 C.ar        1 UNL1     0.0226
     10 C         -1.811492   0.922747   3.4126 C.ar        1 UNL1     0.1343
     11 C         -2.100047   2.229724   3.802967 C.ar        1 UNL1     0.1007
     12 C         -1.039412   3.106408   4.046402 C.ar        1 UNL1     0.1389
     13 C         0.29273   2.659993   3.959555 C.ar        1 UNL1     0.0229
     14 C         -3.482536   2.727978   3.989035 C.2        1 UNL1     0.1740
     15 C         -3.604753   4.081837   4.624392 C.3        1 UNL1     0.0520
     16 C         -2.517295   4.98175   4.053823 C.3        1 UNL1     0.1322
     17 O         -1.206547   4.441644   4.331845 O.3        1 UNL1     -0.4828
     18 C         -2.745267   5.372612   2.59164 C.ar        1 UNL1     -0.0067
     19 C         -3.931176   4.969772   1.943911 C.ar        1 UNL1     -0.0516
     20 C         -4.149834   5.269683   0.594021 C.ar        1 UNL1     -0.0198
     21 C         -3.189204   5.963909   -0.119469 C.ar        1 UNL1     0.1169
     22 C         -2.026054   6.403145   0.499396 C.ar        1 UNL1     -0.0198
     23 C         -1.815372   6.119398   1.854076 C.ar        1 UNL1     -0.0516
     24 O         -3.420249   6.204851   -1.441953 O.3        1 UNL1     -0.5068
     25 O         -4.48168   2.064558   3.724331 O.2        1 UNL1     -0.2917
     26 O         -2.80873   0.037246   3.124521 O.3        1 UNL1     -0.5058
     27 O         2.045446   1.44114   0.537774 O.3        1 UNL1     -0.3648
     28 O         0.793417   -1.891754   -0.050804 O.3        1 UNL1     -0.3841
     29 O         -0.850264   0.21317   2.340524 O.3        1 UNL1     -0.3863
     30 O         1.429636   -2.622774   2.850018 O.3        1 UNL1     -0.3829
     31 H         2.6394   -0.333927   -0.150953 H        1 UNL1     0.0937
     32 H         -0.0   0.0   0.0 H        1 UNL1     0.0671
     33 H         -0.692592   -1.739898   1.846152 H        1 UNL1     0.0649
     34 H         0.491112   -1.243097   4.04484 H        1 UNL1     0.0683
     35 H         2.895791   -0.827592   3.801686 H        1 UNL1     0.1085
     36 H         -0.330228   -0.564271   3.074366 H        1 UNL1     0.0691
     37 H         1.10052   3.362545   4.152916 H        1 UNL1     0.0691
     38 H         -3.483674   3.952603   5.705209 H        1 UNL1     0.0385
     39 H         -4.609225   4.476672   4.437522 H        1 UNL1     0.0385
     40 H         -2.550233   5.925216   4.615345 H        1 UNL1     0.0789
     41 H         -4.69655   4.415783   2.479589 H        1 UNL1     0.0623
     42 H         -5.063083   4.943214   0.10269 H        1 UNL1     0.0654
     43 H         -1.273946   6.960565   -0.046065 H        1 UNL1     0.0654
     44 H         -0.900196   6.487049   2.308091 H        1 UNL1     0.0623
     45 H         -4.260206   5.784602   -1.688084 H        1 UNL1     0.2921
     46 H         -3.66909   0.472717   3.232021 H        1 UNL1     0.2922
     47 H         1.146969   1.741584   0.341988 H        1 UNL1     0.2126
     48 H         1.706565   -2.198494   0.109836 H        1 UNL1     0.2101
     49 H         -0.52293   1.030195   1.931726 H        1 UNL1     0.2100
     50 H         0.91581   -3.207579   3.444743 H        1 UNL1     0.2102
@<TRIPOS>BOND
     1     1     2    1
     2     1     6    1
     3     2     3    1
     4     3     4    1
     5     3    29    1
     6     3    33    1
     7     4     5    1
     8     5     6    1
     9     5     7    1
    10     5    35    1
    11     7     8    1
    12     8     9   ar
    13     8    13   ar
    14     9    10   ar
    15     9    36    1
    16    10    11   ar
    17    10    26    1
    18    11    12   ar
    19    11    14    1
    20    12    13   ar
    21    12    17    1
    22    13    37    1
    23    14    15    1
    24    14    25    2
    25    15    16    1
    26    15    38    1
    27    15    39    1
    28    16    17    1
    29    16    18    1
    30    16    40    1
    31    18    19   ar
    32    18    23   ar
    33    19    20   ar
    34    19    41    1
    35    20    21   ar
    36    20    42    1
    37    21    22   ar
    38    21    24    1
    39    22    23   ar
    40    22    43    1
    41    23    44    1
    42    24    45    1
    43    26    46    1
    44    27    47    1
    45    28    48    1
    46    29    49    1
    47    30    50    1
    48     1    31    1
    49     1    27    1
    50     2    32    1
    51     2    28    1
    52     4    34    1
    53     4    30    1
