@<TRIPOS>MOLECULE
*****
 50 53 0 0 0
SMALL
GASTEIGER

@<TRIPOS>ATOM
     1 C         -0.501943   -1.186761   1.763648 C.3        1 UNL1     0.1889
     2 C         -0.503138   -0.947417   0.229812 C.3        1 UNL1     0.1342
     3 C         -1.896401   -0.944827   -0.417704 C.3        1 UNL1     0.1174
     4 C         -2.860921   -1.931224   0.2455 C.3        1 UNL1     0.1456
     5 C         -2.831683   -1.842491   1.782262 C.3        1 UNL1     0.2326
     6 O         -1.505243   -2.062374   2.256685 O.3        1 UNL1     -0.3076
     7 O         -3.424597   -0.636846   2.298202 O.3        1 UNL1     -0.4605
     8 C         -4.038527   -0.743616   3.533199 C.ar        1 UNL1     0.1310
     9 C         -4.910917   -1.767155   3.91869 C.ar        1 UNL1     0.0226
     10 C         -5.470135   -1.796521   5.201778 C.ar        1 UNL1     0.1343
     11 C         -5.151506   -0.815001   6.139294 C.ar        1 UNL1     0.1007
     12 C         -4.313796   0.234596   5.75281 C.ar        1 UNL1     0.1389
     13 C         -3.75372   0.265331   4.461763 C.ar        1 UNL1     0.0229
     14 C         -5.647261   -0.843153   7.534854 C.2        1 UNL1     0.1740
     15 C         -5.029783   0.160686   8.463605 C.3        1 UNL1     0.0520
     16 C         -4.871325   1.476559   7.714388 C.3        1 UNL1     0.1322
     17 O         -4.019996   1.309617   6.559208 O.3        1 UNL1     -0.4828
     18 C         -6.196949   2.186177   7.428226 C.ar        1 UNL1     -0.0067
     19 C         -6.461719   2.660614   6.127066 C.ar        1 UNL1     -0.0516
     20 C         -7.643302   3.355462   5.842439 C.ar        1 UNL1     -0.0198
     21 C         -8.562627   3.588196   6.849665 C.ar        1 UNL1     0.1169
     22 C         -8.34559   3.104339   8.13326 C.ar        1 UNL1     -0.0198
     23 C         -7.172601   2.393427   8.413897 C.ar        1 UNL1     -0.0516
     24 O         -9.684307   4.301335   6.543614 O.3        1 UNL1     -0.5068
     25 O         -6.450176   -1.674452   7.950494 O.2        1 UNL1     -0.2917
     26 O         -6.314535   -2.821602   5.514477 O.3        1 UNL1     -0.5058
     27 O         -0.432137   0.009914   2.522517 O.3        1 UNL1     -0.3648
     28 O         0.258215   -1.996799   -0.396164 O.3        1 UNL1     -0.3841
     29 O         -2.421755   0.382424   -0.485075 O.3        1 UNL1     -0.3863
     30 O         -2.509085   -3.275338   -0.14853 O.3        1 UNL1     -0.3829
     31 H         0.431821   -1.709506   1.997961 H        1 UNL1     0.0937
     32 H         0.0   0.0   0.0 H        1 UNL1     0.0671
     33 H         -1.781345   -1.266446   -1.462235 H        1 UNL1     0.0649
     34 H         -3.882156   -1.750557   -0.107825 H        1 UNL1     0.0683
     35 H         -3.4333   -2.700206   2.10824 H        1 UNL1     0.1085
     36 H         -5.154117   -2.589365   3.254653 H        1 UNL1     0.0691
     37 H         -3.105384   1.093977   4.18518 H        1 UNL1     0.0691
     38 H         -4.057929   -0.233791   8.778905 H        1 UNL1     0.0385
     39 H         -5.661749   0.263724   9.352301 H        1 UNL1     0.0385
     40 H         -4.312941   2.157601   8.370825 H        1 UNL1     0.0789
     41 H         -5.751815   2.49875   5.321158 H        1 UNL1     0.0623
     42 H         -7.830486   3.726642   4.83785 H        1 UNL1     0.0654
     43 H         -9.065832   3.267885   8.925985 H        1 UNL1     0.0654
     44 H         -7.040608   2.020769   9.425108 H        1 UNL1     0.0623
     45 H         -9.413623   5.18121   6.234959 H        1 UNL1     0.2921
     46 H         -5.982796   -3.28614   6.299058 H        1 UNL1     0.2922
     47 H         0.345445   0.524694   2.265167 H        1 UNL1     0.2126
     48 H         1.167435   -1.929675   -0.046098 H        1 UNL1     0.2101
     49 H         -1.917768   0.904525   -1.129437 H        1 UNL1     0.2100
     50 H         -2.666703   -3.358147   -1.111864 H        1 UNL1     0.2102
@<TRIPOS>BOND
     1     1     2    1
     2     1     6    1
     3     2     3    1
     4     3     4    1
     5     3    29    1
     6     3    33    1
     7     4     5    1
     8     5     6    1
     9     5     7    1
    10     5    35    1
    11     7     8    1
    12     8     9   ar
    13     8    13   ar
    14     9    10   ar
    15     9    36    1
    16    10    11   ar
    17    10    26    1
    18    11    12   ar
    19    11    14    1
    20    12    13   ar
    21    12    17    1
    22    13    37    1
    23    14    15    1
    24    14    25    2
    25    15    16    1
    26    15    38    1
    27    15    39    1
    28    16    17    1
    29    16    18    1
    30    16    40    1
    31    18    19   ar
    32    18    23   ar
    33    19    20   ar
    34    19    41    1
    35    20    21   ar
    36    20    42    1
    37    21    22   ar
    38    21    24    1
    39    22    23   ar
    40    22    43    1
    41    23    44    1
    42    24    45    1
    43    26    46    1
    44    27    47    1
    45    28    48    1
    46    29    49    1
    47    30    50    1
    48     1    31    1
    49     1    27    1
    50     2    32    1
    51     2    28    1
    52     4    34    1
    53     4    30    1
