@<TRIPOS>MOLECULE
*****
 50 53 0 0 0
SMALL
GASTEIGER

@<TRIPOS>ATOM
     1 C         2.01444   0.64172   0.548661 C.3        1 UNL1     0.1889
     2 C         0.529776   0.348944   0.895063 C.3        1 UNL1     0.1342
     3 C         -0.234396   1.537537   1.498183 C.3        1 UNL1     0.1174
     4 C         0.644348   2.416048   2.392131 C.3        1 UNL1     0.1456
     5 C         2.00153   2.746011   1.744408 C.3        1 UNL1     0.2326
     6 O         2.689219   1.540952   1.416101 O.3        1 UNL1     -0.3076
     7 O         1.901151   3.659898   0.637134 O.3        1 UNL1     -0.4605
     8 C         3.011721   4.44997   0.400602 C.ar        1 UNL1     0.1310
     9 C         4.329853   3.989497   0.312325 C.ar        1 UNL1     0.0226
     10 C         5.387704   4.8687   0.051834 C.ar        1 UNL1     0.1343
     11 C         5.14998   6.227516   -0.150518 C.ar        1 UNL1     0.1007
     12 C         3.842979   6.70561   -0.024186 C.ar        1 UNL1     0.1389
     13 C         2.779826   5.821782   0.240361 C.ar        1 UNL1     0.0229
     14 C         6.219129   7.187094   -0.511464 C.2        1 UNL1     0.1740
     15 C         5.754568   8.557232   -0.909529 C.3        1 UNL1     0.0520
     16 C         4.61308   8.965426   0.011524 C.3        1 UNL1     0.1322
     17 O         3.510349   8.038415   -0.096666 O.3        1 UNL1     -0.4828
     18 C         5.055023   9.26079   1.446854 C.ar        1 UNL1     -0.0067
     19 C         5.394102   8.191379   2.301019 C.ar        1 UNL1     -0.0516
     20 C         5.756648   8.423276   3.633215 C.ar        1 UNL1     -0.0198
     21 C         5.776798   9.716469   4.124207 C.ar        1 UNL1     0.1169
     22 C         5.480418   10.793022   3.298354 C.ar        1 UNL1     -0.0198
     23 C         5.135733   10.562882   1.961087 C.ar        1 UNL1     -0.0516
     24 O         6.098061   9.900407   5.436974 O.3        1 UNL1     -0.5068
     25 O         7.408215   6.884772   -0.567685 O.2        1 UNL1     -0.2917
     26 O         6.650051   4.356048   -0.020629 O.3        1 UNL1     -0.5058
     27 O         2.221862   0.974318   -0.814842 O.3        1 UNL1     -0.3648
     28 O         0.488444   -0.720168   1.858388 O.3        1 UNL1     -0.3841
     29 O         -0.903181   2.28098   0.477324 O.3        1 UNL1     -0.3863
     30 O         0.880664   1.732883   3.642383 O.3        1 UNL1     -0.3829
     31 H         2.55838   -0.299737   0.682331 H        1 UNL1     0.0937
     32 H         -0.0   0.0   0.0 H        1 UNL1     0.0671
     33 H         -1.033177   1.133848   2.135917 H        1 UNL1     0.0649
     34 H         0.121049   3.348675   2.630387 H        1 UNL1     0.0683
     35 H         2.569155   3.227724   2.550407 H        1 UNL1     0.1085
     36 H         4.573469   2.936746   0.404457 H        1 UNL1     0.0691
     37 H         1.771587   6.219251   0.335047 H        1 UNL1     0.0691
     38 H         5.421601   8.504286   -1.951573 H        1 UNL1     0.0385
     39 H         6.599232   9.252484   -0.855249 H        1 UNL1     0.0385
     40 H         4.212564   9.914281   -0.370289 H        1 UNL1     0.0789
     41 H         5.377125   7.166395   1.942173 H        1 UNL1     0.0623
     42 H         6.00445   7.5893   4.285204 H        1 UNL1     0.0654
     43 H         5.507699   11.810945   3.668488 H        1 UNL1     0.0654
     44 H         4.920472   11.428154   1.341561 H        1 UNL1     0.0623
     45 H         5.294644   10.161325   5.915682 H        1 UNL1     0.2921
     46 H         7.275408   4.977664   0.384259 H        1 UNL1     0.2922
     47 H         1.868371   0.278681   -1.386676 H        1 UNL1     0.2126
     48 H         1.219244   -0.559565   2.485979 H        1 UNL1     0.2101
     49 H         -1.782717   2.549639   0.787216 H        1 UNL1     0.2100
     50 H         1.84694   1.724589   3.803487 H        1 UNL1     0.2102
@<TRIPOS>BOND
     1     1     2    1
     2     1     6    1
     3     2     3    1
     4     3     4    1
     5     3    29    1
     6     3    33    1
     7     4     5    1
     8     5     6    1
     9     5     7    1
    10     5    35    1
    11     7     8    1
    12     8     9   ar
    13     8    13   ar
    14     9    10   ar
    15     9    36    1
    16    10    11   ar
    17    10    26    1
    18    11    12   ar
    19    11    14    1
    20    12    13   ar
    21    12    17    1
    22    13    37    1
    23    14    15    1
    24    14    25    2
    25    15    16    1
    26    15    38    1
    27    15    39    1
    28    16    17    1
    29    16    18    1
    30    16    40    1
    31    18    19   ar
    32    18    23   ar
    33    19    20   ar
    34    19    41    1
    35    20    21   ar
    36    20    42    1
    37    21    22   ar
    38    21    24    1
    39    22    23   ar
    40    22    43    1
    41    23    44    1
    42    24    45    1
    43    26    46    1
    44    27    47    1
    45    28    48    1
    46    29    49    1
    47    30    50    1
    48     1    31    1
    49     1    27    1
    50     2    32    1
    51     2    28    1
    52     4    34    1
    53     4    30    1
