@<TRIPOS>MOLECULE
*****
 50 53 0 0 0
SMALL
GASTEIGER

@<TRIPOS>ATOM
     1 C         -0.371054   -1.397585   1.637034 C.3        1 UNL1     0.1889
     2 C         -0.487883   -0.971268   0.148899 C.3        1 UNL1     0.1342
     3 C         -1.926304   -0.896695   -0.385749 C.3        1 UNL1     0.1174
     4 C         -2.841446   -1.962543   0.2222 C.3        1 UNL1     0.1456
     5 C         -2.695163   -2.063488   1.751505 C.3        1 UNL1     0.2326
     6 O         -1.337367   -2.332761   2.093191 O.3        1 UNL1     -0.3076
     7 O         -3.242481   -0.933817   2.455498 O.3        1 UNL1     -0.4605
     8 C         -3.081266   -0.939562   3.829363 C.ar        1 UNL1     0.1310
     9 C         -2.400875   -1.918633   4.561339 C.ar        1 UNL1     0.0226
     10 C         -2.2768   -1.826343   5.952738 C.ar        1 UNL1     0.1343
     11 C         -2.810153   -0.739335   6.64396 C.ar        1 UNL1     0.1007
     12 C         -3.527146   0.223596   5.928791 C.ar        1 UNL1     0.1389
     13 C         -3.654035   0.129206   4.53007 C.ar        1 UNL1     0.0229
     14 C         -2.636281   -0.548654   8.102577 C.2        1 UNL1     0.1740
     15 C         -3.0793   0.780003   8.641051 C.3        1 UNL1     0.0520
     16 C         -4.377195   1.172053   7.948431 C.3        1 UNL1     0.1322
     17 O         -4.185001   1.276895   6.520446 O.3        1 UNL1     -0.4828
     18 C         -5.579583   0.32196   8.365957 C.ar        1 UNL1     -0.0067
     19 C         -6.090919   0.441033   9.67461 C.ar        1 UNL1     -0.0516
     20 C         -7.159226   -0.355596   10.103637 C.ar        1 UNL1     -0.0198
     21 C         -7.718822   -1.278134   9.237841 C.ar        1 UNL1     0.1169
     22 C         -7.259063   -1.39509   7.932551 C.ar        1 UNL1     -0.0198
     23 C         -6.202867   -0.58562   7.497504 C.ar        1 UNL1     -0.0516
     24 O         -8.732817   -2.062989   9.702832 O.3        1 UNL1     -0.5068
     25 O         -2.094551   -1.374554   8.832579 O.2        1 UNL1     -0.2917
     26 O         -1.601983   -2.815022   6.607505 O.3        1 UNL1     -0.5058
     27 O         -0.239147   -0.303053   2.53 O.3        1 UNL1     -0.3648
     28 O         0.219629   -1.931391   -0.657511 O.3        1 UNL1     -0.3841
     29 O         -2.450117   0.425831   -0.249082 O.3        1 UNL1     -0.3863
     30 O         -2.525779   -3.245967   -0.359923 O.3        1 UNL1     -0.3829
     31 H         0.575785   -1.940026   1.733637 H        1 UNL1     0.0937
     32 H         0.0   0.0   0.0 H        1 UNL1     0.0671
     33 H         -1.892207   -1.086653   -1.467633 H        1 UNL1     0.0649
     34 H         -3.885872   -1.745407   -0.027655 H        1 UNL1     0.0683
     35 H         -3.273584   -2.958119   2.01408 H        1 UNL1     0.1085
     36 H         -1.916038   -2.758914   4.07659 H        1 UNL1     0.0691
     37 H         -4.218139   0.891312   3.996708 H        1 UNL1     0.0691
     38 H         -2.285001   1.504129   8.430674 H        1 UNL1     0.0385
     39 H         -3.195792   0.706138   9.727675 H        1 UNL1     0.0385
     40 H         -4.618971   2.194541   8.268715 H        1 UNL1     0.0789
     41 H         -5.663054   1.151261   10.37615 H        1 UNL1     0.0623
     42 H         -7.536811   -0.262771   11.118932 H        1 UNL1     0.0654
     43 H         -7.699921   -2.103704   7.241595 H        1 UNL1     0.0654
     44 H         -5.876031   -0.696225   6.468043 H        1 UNL1     0.0623
     45 H         -8.461613   -2.44162   10.554773 H        1 UNL1     0.2921
     46 H         -1.397699   -2.524148   7.510318 H        1 UNL1     0.2922
     47 H         0.482632   0.275293   2.246432 H        1 UNL1     0.2126
     48 H         -0.336841   -2.102234   -1.441657 H        1 UNL1     0.2101
     49 H         -2.99877   0.482603   0.549386 H        1 UNL1     0.2100
     50 H         -1.991227   -3.748286   0.289416 H        1 UNL1     0.2102
@<TRIPOS>BOND
     1     1     2    1
     2     1     6    1
     3     2     3    1
     4     3     4    1
     5     3    29    1
     6     3    33    1
     7     4     5    1
     8     5     6    1
     9     5     7    1
    10     5    35    1
    11     7     8    1
    12     8     9   ar
    13     8    13   ar
    14     9    10   ar
    15     9    36    1
    16    10    11   ar
    17    10    26    1
    18    11    12   ar
    19    11    14    1
    20    12    13   ar
    21    12    17    1
    22    13    37    1
    23    14    15    1
    24    14    25    2
    25    15    16    1
    26    15    38    1
    27    15    39    1
    28    16    17    1
    29    16    18    1
    30    16    40    1
    31    18    19   ar
    32    18    23   ar
    33    19    20   ar
    34    19    41    1
    35    20    21   ar
    36    20    42    1
    37    21    22   ar
    38    21    24    1
    39    22    23   ar
    40    22    43    1
    41    23    44    1
    42    24    45    1
    43    26    46    1
    44    27    47    1
    45    28    48    1
    46    29    49    1
    47    30    50    1
    48     1    31    1
    49     1    27    1
    50     2    32    1
    51     2    28    1
    52     4    34    1
    53     4    30    1
