@<TRIPOS>MOLECULE
*****
 50 53 0 0 0
SMALL
GASTEIGER

@<TRIPOS>ATOM
     1 C         -0.342322   -1.334843   1.694643 C.3        1 UNL1     0.1889
     2 C         -0.467376   -0.974196   0.189905 C.3        1 UNL1     0.1342
     3 C         -1.906785   -0.952567   -0.346843 C.3        1 UNL1     0.1174
     4 C         -2.799558   -2.010893   0.305859 C.3        1 UNL1     0.1456
     5 C         -2.651935   -2.044174   1.838003 C.3        1 UNL1     0.2326
     6 O         -1.288934   -2.270121   2.1902 O.3        1 UNL1     -0.3076
     7 O         -3.22329   -0.897618   2.493963 O.3        1 UNL1     -0.4605
     8 C         -3.744213   -1.118441   3.756264 C.ar        1 UNL1     0.1310
     9 C         -4.571267   -2.188003   4.115873 C.ar        1 UNL1     0.0226
     10 C         -5.035261   -2.334541   5.428557 C.ar        1 UNL1     0.1343
     11 C         -4.663675   -1.427302   6.419861 C.ar        1 UNL1     0.1007
     12 C         -3.871657   -0.332408   6.063915 C.ar        1 UNL1     0.1389
     13 C         -3.407406   -0.183832   4.743375 C.ar        1 UNL1     0.0229
     14 C         -5.056223   -1.580597   7.839917 C.2        1 UNL1     0.1740
     15 C         -4.387572   -0.644251   8.803093 C.3        1 UNL1     0.0520
     16 C         -4.303182   0.731887   8.157277 C.3        1 UNL1     0.1322
     17 O         -3.535723   0.678292   6.934491 O.3        1 UNL1     -0.4828
     18 C         -5.6563   1.435261   8.026656 C.ar        1 UNL1     -0.0067
     19 C         -6.0143   2.025225   6.797024 C.ar        1 UNL1     -0.0516
     20 C         -7.223368   2.71702   6.657248 C.ar        1 UNL1     -0.0198
     21 C         -8.07776   2.831946   7.739206 C.ar        1 UNL1     0.1169
     22 C         -7.768389   2.233196   8.953548 C.ar        1 UNL1     -0.0198
     23 C         -6.567895   1.525598   9.088365 C.ar        1 UNL1     -0.0516
     24 O         -9.228781   3.545343   7.576064 O.3        1 UNL1     -0.5068
     25 O         -5.814603   -2.459671   8.240635 O.2        1 UNL1     -0.2917
     26 O         -5.83967   -3.399063   5.713692 O.3        1 UNL1     -0.5058
     27 O         -0.233955   -0.201104   2.540621 O.3        1 UNL1     -0.3648
     28 O         0.260614   -1.952332   -0.575592 O.3        1 UNL1     -0.3841
     29 O         -2.458425   0.363209   -0.265843 O.3        1 UNL1     -0.3863
     30 O         -2.456622   -3.310776   -0.221766 O.3        1 UNL1     -0.3829
     31 H         0.615693   -1.85265   1.813653 H        1 UNL1     0.0937
     32 H         0.0   0.0   0.0 H        1 UNL1     0.0671
     33 H         -1.868157   -1.187202   -1.41977 H        1 UNL1     0.0649
     34 H         -3.848205   -1.826547   0.047486 H        1 UNL1     0.0683
     35 H         -3.2115   -2.938934   2.138288 H        1 UNL1     0.1085
     36 H         -4.850078   -2.957501   3.404355 H        1 UNL1     0.0691
     37 H         -2.793033   0.677955   4.491657 H        1 UNL1     0.0691
     38 H         -3.389725   -1.043303   9.01425 H        1 UNL1     0.0385
     39 H         -4.954708   -0.627847   9.740038 H        1 UNL1     0.0385
     40 H         -3.70855   1.367837   8.826978 H        1 UNL1     0.0789
     41 H         -5.35669   1.956923   5.93532 H        1 UNL1     0.0623
     42 H         -7.482652   3.177762   5.707248 H        1 UNL1     0.0654
     43 H         -8.437213   2.304191   9.802987 H        1 UNL1     0.0654
     44 H         -6.363212   1.061503   10.048347 H        1 UNL1     0.0623
     45 H         -8.993458   4.458591   7.345159 H        1 UNL1     0.2921
     46 H         -5.445741   -3.919   6.431952 H        1 UNL1     0.2922
     47 H         0.50971   0.352686   2.264689 H        1 UNL1     0.2126
     48 H         1.195936   -1.880372   -0.304066 H        1 UNL1     0.2101
     49 H         -2.021138   0.944506   -0.908236 H        1 UNL1     0.2100
     50 H         -2.69277   -3.322167   -1.172459 H        1 UNL1     0.2102
@<TRIPOS>BOND
     1     1     2    1
     2     1     6    1
     3     2     3    1
     4     3     4    1
     5     3    29    1
     6     3    33    1
     7     4     5    1
     8     5     6    1
     9     5     7    1
    10     5    35    1
    11     7     8    1
    12     8     9   ar
    13     8    13   ar
    14     9    10   ar
    15     9    36    1
    16    10    11   ar
    17    10    26    1
    18    11    12   ar
    19    11    14    1
    20    12    13   ar
    21    12    17    1
    22    13    37    1
    23    14    15    1
    24    14    25    2
    25    15    16    1
    26    15    38    1
    27    15    39    1
    28    16    17    1
    29    16    18    1
    30    16    40    1
    31    18    19   ar
    32    18    23   ar
    33    19    20   ar
    34    19    41    1
    35    20    21   ar
    36    20    42    1
    37    21    22   ar
    38    21    24    1
    39    22    23   ar
    40    22    43    1
    41    23    44    1
    42    24    45    1
    43    26    46    1
    44    27    47    1
    45    28    48    1
    46    29    49    1
    47    30    50    1
    48     1    31    1
    49     1    27    1
    50     2    32    1
    51     2    28    1
    52     4    34    1
    53     4    30    1
