@<TRIPOS>MOLECULE
*****
 50 53 0 0 0
SMALL
GASTEIGER

@<TRIPOS>ATOM
     1 C         -0.334664   -1.329315   1.700507 C.3        1 UNL1     0.1889
     2 C         -0.463827   -0.974961   0.194622 C.3        1 UNL1     0.1342
     3 C         -1.904343   -0.960111   -0.33938 C.3        1 UNL1     0.1174
     4 C         -2.792387   -2.018776   0.319198 C.3        1 UNL1     0.1456
     5 C         -2.641669   -2.045587   1.851167 C.3        1 UNL1     0.2326
     6 O         -1.277254   -2.265722   2.201568 O.3        1 UNL1     -0.3076
     7 O         -3.215478   -0.89834   2.503767 O.3        1 UNL1     -0.4605
     8 C         -3.725998   -1.11415   3.771176 C.ar        1 UNL1     0.1310
     9 C         -4.543773   -2.186449   4.143626 C.ar        1 UNL1     0.0226
     10 C         -4.997472   -2.327295   5.460525 C.ar        1 UNL1     0.1343
     11 C         -4.624497   -1.411327   6.443242 C.ar        1 UNL1     0.1007
     12 C         -3.841888   -0.31389   6.074542 C.ar        1 UNL1     0.1389
     13 C         -3.388002   -0.171055   4.749772 C.ar        1 UNL1     0.0229
     14 C         -5.005945   -1.557787   7.86704 C.2        1 UNL1     0.1740
     15 C         -4.3363   -0.611054   8.819312 C.3        1 UNL1     0.0520
     16 C         -4.265111   0.76134   8.164007 C.3        1 UNL1     0.1322
     17 O         -3.506071   0.704527   6.936122 O.3        1 UNL1     -0.4828
     18 C         -5.62349   1.455449   8.03854 C.ar        1 UNL1     -0.0067
     19 C         -6.001392   2.019648   6.802788 C.ar        1 UNL1     -0.0516
     20 C         -7.215803   2.702705   6.666397 C.ar        1 UNL1     -0.0198
     21 C         -8.055812   2.834483   7.757656 C.ar        1 UNL1     0.1169
     22 C         -7.7267   2.260965   8.978967 C.ar        1 UNL1     -0.0198
     23 C         -6.520849   1.561971   9.110825 C.ar        1 UNL1     -0.0516
     24 O         -9.212616   3.538964   7.596684 O.3        1 UNL1     -0.5068
     25 O         -5.755945   -2.438911   8.278872 O.2        1 UNL1     -0.2917
     26 O         -5.793166   -3.3949   5.75831 O.3        1 UNL1     -0.5058
     27 O         -0.228345   -0.191931   2.541841 O.3        1 UNL1     -0.3648
     28 O         0.265854   -1.953709   -0.568479 O.3        1 UNL1     -0.3841
     29 O         -2.460109   0.35417   -0.262434 O.3        1 UNL1     -0.3863
     30 O         -2.446244   -3.319589   -0.204023 O.3        1 UNL1     -0.3829
     31 H         0.625264   -1.843534   1.819657 H        1 UNL1     0.0937
     32 H         0.0   0.0   0.0 H        1 UNL1     0.0671
     33 H         -1.867041   -1.198812   -1.411458 H        1 UNL1     0.0649
     34 H         -3.842131   -1.838853   0.062165 H        1 UNL1     0.0683
     35 H         -3.197727   -2.940982   2.156039 H        1 UNL1     0.1085
     36 H         -4.822842   -2.962283   3.439124 H        1 UNL1     0.0691
     37 H         -2.780831   0.692862   4.488078 H        1 UNL1     0.0691
     38 H         -3.334502   -1.00253   9.025887 H        1 UNL1     0.0385
     39 H         -4.896832   -0.592055   9.760174 H        1 UNL1     0.0385
     40 H         -3.669699   1.405316   8.825294 H        1 UNL1     0.0789
     41 H         -5.355354   1.93781   5.933543 H        1 UNL1     0.0623
     42 H         -7.490491   3.143626   5.711333 H        1 UNL1     0.0654
     43 H         -8.384133   2.345204   9.836053 H        1 UNL1     0.0654
     44 H         -6.300602   1.117626   10.076689 H        1 UNL1     0.0623
     45 H         -8.985412   4.446442   7.336722 H        1 UNL1     0.2921
     46 H         -5.39011   -3.908565   6.476019 H        1 UNL1     0.2922
     47 H         0.515511   0.361069   2.264839 H        1 UNL1     0.2126
     48 H         1.198701   -1.889333   -0.286726 H        1 UNL1     0.2101
     49 H         -2.020127   0.936497   -0.902046 H        1 UNL1     0.2100
     50 H         -2.678985   -3.333543   -1.155522 H        1 UNL1     0.2102
@<TRIPOS>BOND
     1     1     2    1
     2     1     6    1
     3     2     3    1
     4     3     4    1
     5     3    29    1
     6     3    33    1
     7     4     5    1
     8     5     6    1
     9     5     7    1
    10     5    35    1
    11     7     8    1
    12     8     9   ar
    13     8    13   ar
    14     9    10   ar
    15     9    36    1
    16    10    11   ar
    17    10    26    1
    18    11    12   ar
    19    11    14    1
    20    12    13   ar
    21    12    17    1
    22    13    37    1
    23    14    15    1
    24    14    25    2
    25    15    16    1
    26    15    38    1
    27    15    39    1
    28    16    17    1
    29    16    18    1
    30    16    40    1
    31    18    19   ar
    32    18    23   ar
    33    19    20   ar
    34    19    41    1
    35    20    21   ar
    36    20    42    1
    37    21    22   ar
    38    21    24    1
    39    22    23   ar
    40    22    43    1
    41    23    44    1
    42    24    45    1
    43    26    46    1
    44    27    47    1
    45    28    48    1
    46    29    49    1
    47    30    50    1
    48     1    31    1
    49     1    27    1
    50     2    32    1
    51     2    28    1
    52     4    34    1
    53     4    30    1
