@<TRIPOS>MOLECULE
*****
 50 53 0 0 0
SMALL
GASTEIGER

@<TRIPOS>ATOM
     1 C         -0.161568   0.911717   1.97825 C.3        1 UNL1     0.1889
     2 C         0.353273   -0.195824   1.020006 C.3        1 UNL1     0.1342
     3 C         -0.04157   -1.625352   1.421272 C.3        1 UNL1     0.1174
     4 C         -0.082307   -1.826155   2.938222 C.3        1 UNL1     0.1456
     5 C         -0.828727   -0.691868   3.663904 C.3        1 UNL1     0.2326
     6 O         -0.226865   0.562749   3.353151 O.3        1 UNL1     -0.3076
     7 O         -2.250669   -0.707707   3.442209 O.3        1 UNL1     -0.4605
     8 C         -3.031768   -0.239006   4.483234 C.ar        1 UNL1     0.1310
     9 C         -2.873949   -0.57846   5.831257 C.ar        1 UNL1     0.0226
     10 C         -3.707451   -0.035946   6.816577 C.ar        1 UNL1     0.1343
     11 C         -4.704724   0.878472   6.480235 C.ar        1 UNL1     0.1007
     12 C         -4.898545   1.193711   5.132703 C.ar        1 UNL1     0.1389
     13 C         -4.062041   0.646051   4.141865 C.ar        1 UNL1     0.0229
     14 C         -5.558755   1.546192   7.489658 C.2        1 UNL1     0.1740
     15 C         -6.421607   2.660774   6.975126 C.3        1 UNL1     0.0520
     16 C         -6.983752   2.249267   5.621386 C.3        1 UNL1     0.1322
     17 O         -5.918306   1.997624   4.678746 O.3        1 UNL1     -0.4828
     18 C         -8.034578   1.139328   5.702167 C.ar        1 UNL1     -0.0067
     19 C         -7.930775   0.023742   4.846068 C.ar        1 UNL1     -0.0516
     20 C         -8.900508   -0.98589   4.861039 C.ar        1 UNL1     -0.0198
     21 C         -9.980256   -0.88819   5.720357 C.ar        1 UNL1     0.1169
     22 C         -10.092571   0.181573   6.598896 C.ar        1 UNL1     -0.0198
     23 C         -9.113295   1.182109   6.597116 C.ar        1 UNL1     -0.0516
     24 O         -10.924505   -1.871641   5.680128 O.3        1 UNL1     -0.5068
     25 O         -5.523388   1.279624   8.688064 O.2        1 UNL1     -0.2917
     26 O         -3.501797   -0.408808   8.112827 O.3        1 UNL1     -0.5058
     27 O         -1.360524   1.52861   1.536964 O.3        1 UNL1     -0.3648
     28 O         1.791615   -0.140989   0.990486 O.3        1 UNL1     -0.3841
     29 O         -1.257002   -2.014991   0.778591 O.3        1 UNL1     -0.3863
     30 O         1.268883   -1.890518   3.444022 O.3        1 UNL1     -0.3829
     31 H         0.580903   1.716825   1.953404 H        1 UNL1     0.0937
     32 H         0.0   0.0   0.0 H        1 UNL1     0.0671
     33 H         0.726559   -2.307495   1.030915 H        1 UNL1     0.0649
     34 H         -0.559544   -2.783268   3.176089 H        1 UNL1     0.0683
     35 H         -0.634127   -0.884523   4.726398 H        1 UNL1     0.1085
     36 H         -2.081726   -1.240296   6.163639 H        1 UNL1     0.0691
     37 H         -4.234376   0.906602   3.099797 H        1 UNL1     0.0691
     38 H         -5.792478   3.552925   6.886869 H        1 UNL1     0.0385
     39 H         -7.211075   2.869798   7.705076 H        1 UNL1     0.0385
     40 H         -7.512423   3.120705   5.211969 H        1 UNL1     0.0789
     41 H         -7.097595   -0.071734   4.155889 H        1 UNL1     0.0623
     42 H         -8.815529   -1.835217   4.187664 H        1 UNL1     0.0654
     43 H         -10.926134   0.260407   7.286549 H        1 UNL1     0.0654
     44 H         -9.227285   1.998093   7.304238 H        1 UNL1     0.0623
     45 H         -11.30753   -1.892754   4.788185 H        1 UNL1     0.2921
     46 H         -3.347735   0.380335   8.655903 H        1 UNL1     0.2922
     47 H         -1.244443   1.886764   0.645835 H        1 UNL1     0.2126
     48 H         2.030868   0.740518   0.644892 H        1 UNL1     0.2101
     49 H         -1.105996   -2.125763   -0.173628 H        1 UNL1     0.2100
     50 H         1.688459   -2.698043   3.081293 H        1 UNL1     0.2102
@<TRIPOS>BOND
     1     1     2    1
     2     1     6    1
     3     2     3    1
     4     3     4    1
     5     3    29    1
     6     3    33    1
     7     4     5    1
     8     5     6    1
     9     5     7    1
    10     5    35    1
    11     7     8    1
    12     8     9   ar
    13     8    13   ar
    14     9    10   ar
    15     9    36    1
    16    10    11   ar
    17    10    26    1
    18    11    12   ar
    19    11    14    1
    20    12    13   ar
    21    12    17    1
    22    13    37    1
    23    14    15    1
    24    14    25    2
    25    15    16    1
    26    15    38    1
    27    15    39    1
    28    16    17    1
    29    16    18    1
    30    16    40    1
    31    18    19   ar
    32    18    23   ar
    33    19    20   ar
    34    19    41    1
    35    20    21   ar
    36    20    42    1
    37    21    22   ar
    38    21    24    1
    39    22    23   ar
    40    22    43    1
    41    23    44    1
    42    24    45    1
    43    26    46    1
    44    27    47    1
    45    28    48    1
    46    29    49    1
    47    30    50    1
    48     1    31    1
    49     1    27    1
    50     2    32    1
    51     2    28    1
    52     4    34    1
    53     4    30    1
