@<TRIPOS>MOLECULE
*****
 50 53 0 0 0
SMALL
GASTEIGER

@<TRIPOS>ATOM
     1 C         2.099002   0.204782   -0.568383 C.3        1 UNL1     0.1889
     2 C         0.985361   -0.246847   0.414357 C.3        1 UNL1     0.1342
     3 C         1.097727   0.346221   1.827194 C.3        1 UNL1     0.1174
     4 C         2.548321   0.528619   2.280655 C.3        1 UNL1     0.1456
     5 C         3.425704   1.188157   1.201038 C.3        1 UNL1     0.2326
     6 O         3.38185   0.418163   0.001849 O.3        1 UNL1     -0.3076
     7 O         3.126636   2.580184   0.990941 O.3        1 UNL1     -0.4605
     8 C         3.102803   3.00307   -0.325921 C.ar        1 UNL1     0.1310
     9 C         4.179493   3.573428   -1.013475 C.ar        1 UNL1     0.0226
     10 C         4.061013   3.954859   -2.355256 C.ar        1 UNL1     0.1343
     11 C         2.868944   3.753073   -3.049587 C.ar        1 UNL1     0.1007
     12 C         1.774238   3.222188   -2.362155 C.ar        1 UNL1     0.1389
     13 C         1.892827   2.841181   -1.012265 C.ar        1 UNL1     0.0229
     14 C         2.71438   4.059945   -4.490453 C.2        1 UNL1     0.1740
     15 C         1.444023   3.575006   -5.124941 C.3        1 UNL1     0.0520
     16 C         0.299383   3.803904   -4.147514 C.3        1 UNL1     0.1322
     17 O         0.523474   3.08088   -2.917031 O.3        1 UNL1     -0.4828
     18 C         -0.064688   5.278627   -3.959453 C.ar        1 UNL1     -0.0067
     19 C         -1.292138   5.758327   -4.460919 C.ar        1 UNL1     -0.0516
     20 C         -1.634896   7.110983   -4.347783 C.ar        1 UNL1     -0.0198
     21 C         -0.757575   7.993398   -3.743235 C.ar        1 UNL1     0.1169
     22 C         0.443792   7.544975   -3.209874 C.ar        1 UNL1     -0.0198
     23 C         0.778624   6.189019   -3.306454 C.ar        1 UNL1     -0.0516
     24 O         -1.108821   9.310074   -3.68501 O.3        1 UNL1     -0.5068
     25 O         3.586868   4.602258   -5.163615 O.2        1 UNL1     -0.2917
     26 O         5.148237   4.506479   -2.967827 O.3        1 UNL1     -0.5058
     27 O         1.711642   1.283311   -1.404751 O.3        1 UNL1     -0.3648
     28 O         1.045781   -1.679321   0.545024 O.3        1 UNL1     -0.3841
     29 O         0.32881   1.545812   1.93618 O.3        1 UNL1     -0.3863
     30 O         3.10784   -0.761673   2.608945 O.3        1 UNL1     -0.3829
     31 H         2.261927   -0.62835   -1.260789 H        1 UNL1     0.0937
     32 H         0.0   0.0   0.0 H        1 UNL1     0.0671
     33 H         0.632932   -0.362806   2.526455 H        1 UNL1     0.0649
     34 H         2.581565   1.133997   3.193241 H        1 UNL1     0.0683
     35 H         4.444593   1.101286   1.598779 H        1 UNL1     0.1085
     36 H         5.14919   3.705041   -0.54605 H        1 UNL1     0.0691
     37 H         1.02542   2.431251   -0.499375 H        1 UNL1     0.0691
     38 H         1.56912   2.509235   -5.344055 H        1 UNL1     0.0385
     39 H         1.291498   4.103358   -6.072231 H        1 UNL1     0.0385
     40 H         -0.595089   3.336815   -4.581411 H        1 UNL1     0.0789
     41 H         -1.993969   5.087522   -4.947852 H        1 UNL1     0.0623
     42 H         -2.579081   7.47086   -4.74905 H        1 UNL1     0.0654
     43 H         1.131475   8.224703   -2.721027 H        1 UNL1     0.0654
     44 H         1.720456   5.871609   -2.869364 H        1 UNL1     0.0623
     45 H         -1.145148   9.658139   -4.590686 H        1 UNL1     0.2921
     46 H         4.991749   5.452823   -3.113968 H        1 UNL1     0.2922
     47 H         2.348736   1.394657   -2.124177 H        1 UNL1     0.2126
     48 H         1.817546   -1.876323   1.110091 H        1 UNL1     0.2101
     49 H         -0.044756   1.618388   2.828915 H        1 UNL1     0.2100
     50 H         3.531242   -0.691479   3.489579 H        1 UNL1     0.2102
@<TRIPOS>BOND
     1     1     2    1
     2     1     6    1
     3     2     3    1
     4     3     4    1
     5     3    29    1
     6     3    33    1
     7     4     5    1
     8     5     6    1
     9     5     7    1
    10     5    35    1
    11     7     8    1
    12     8     9   ar
    13     8    13   ar
    14     9    10   ar
    15     9    36    1
    16    10    11   ar
    17    10    26    1
    18    11    12   ar
    19    11    14    1
    20    12    13   ar
    21    12    17    1
    22    13    37    1
    23    14    15    1
    24    14    25    2
    25    15    16    1
    26    15    38    1
    27    15    39    1
    28    16    17    1
    29    16    18    1
    30    16    40    1
    31    18    19   ar
    32    18    23   ar
    33    19    20   ar
    34    19    41    1
    35    20    21   ar
    36    20    42    1
    37    21    22   ar
    38    21    24    1
    39    22    23   ar
    40    22    43    1
    41    23    44    1
    42    24    45    1
    43    26    46    1
    44    27    47    1
    45    28    48    1
    46    29    49    1
    47    30    50    1
    48     1    31    1
    49     1    27    1
    50     2    32    1
    51     2    28    1
    52     4    34    1
    53     4    30    1
