@<TRIPOS>MOLECULE
*****
 50 53 0 0 0
SMALL
GASTEIGER

@<TRIPOS>ATOM
     1 C         -0.368928   -1.397218   1.637828 C.3        1 UNL1     0.1889
     2 C         -0.486914   -0.971651   0.149569 C.3        1 UNL1     0.1342
     3 C         -1.925678   -0.898631   -0.384371 C.3        1 UNL1     0.1174
     4 C         -2.839527   -1.965056   0.224507 C.3        1 UNL1     0.1456
     5 C         -2.692366   -2.065206   1.753781 C.3        1 UNL1     0.2326
     6 O         -1.334147   -2.333084   2.094885 O.3        1 UNL1     -0.3076
     7 O         -3.24036   -0.935734   2.457567 O.3        1 UNL1     -0.4605
     8 C         -3.768844   -1.19916   3.708503 C.ar        1 UNL1     0.1310
     9 C         -4.655245   -2.238353   4.011277 C.ar        1 UNL1     0.0226
     10 C         -5.122418   -2.433954   5.316418 C.ar        1 UNL1     0.1343
     11 C         -4.69546   -1.608809   6.355977 C.ar        1 UNL1     0.1007
     12 C         -3.842555   -0.542562   6.058564 C.ar        1 UNL1     0.1389
     13 C         -3.375035   -0.344488   4.745696 C.ar        1 UNL1     0.0229
     14 C         -5.091329   -1.821505   7.767431 C.2        1 UNL1     0.1740
     15 C         -4.366217   -0.982842   8.778572 C.3        1 UNL1     0.0520
     16 C         -4.204449   0.421352   8.212863 C.3        1 UNL1     0.1322
     17 O         -3.445611   0.39477   6.983827 O.3        1 UNL1     -0.4828
     18 C         -5.514973   1.20797   8.132355 C.ar        1 UNL1     -0.0067
     19 C         -5.567   2.39039   7.365941 C.ar        1 UNL1     -0.0516
     20 C         -6.73586   3.158842   7.309302 C.ar        1 UNL1     -0.0198
     21 C         -7.854608   2.760404   8.018864 C.ar        1 UNL1     0.1169
     22 C         -7.844668   1.583169   8.755653 C.ar        1 UNL1     -0.0198
     23 C         -6.681712   0.80482   8.797627 C.ar        1 UNL1     -0.0516
     24 O         -8.962783   3.554109   7.970063 O.3        1 UNL1     -0.5068
     25 O         -5.89799   -2.677198   8.121794 O.2        1 UNL1     -0.2917
     26 O         -5.986177   -3.4651   5.544982 O.3        1 UNL1     -0.5058
     27 O         -0.237568   -0.30218   2.530253 O.3        1 UNL1     -0.3648
     28 O         0.221065   -1.931472   -0.65679 O.3        1 UNL1     -0.3841
     29 O         -2.450634   0.423473   -0.248005 O.3        1 UNL1     -0.3863
     30 O         -2.522981   -3.248441   -0.357224 O.3        1 UNL1     -0.3829
     31 H         0.578458   -1.938747   1.734177 H        1 UNL1     0.0937
     32 H         0.0   0.0   0.0 H        1 UNL1     0.0671
     33 H         -1.891961   -1.089025   -1.466191 H        1 UNL1     0.0649
     34 H         -3.884281   -1.748987   -0.024904 H        1 UNL1     0.0683
     35 H         -3.269829   -2.960254   2.017039 H        1 UNL1     0.1085
     36 H         -4.980636   -2.947832   3.258362 H        1 UNL1     0.0691
     37 H         -2.712625   0.493617   4.540062 H        1 UNL1     0.0691
     38 H         -3.39245   -1.450359   8.959498 H        1 UNL1     0.0385
     39 H         -4.928212   -0.988261   9.718737 H        1 UNL1     0.0385
     40 H         -3.571653   0.981954   8.914158 H        1 UNL1     0.0789
     41 H         -4.699445   2.729397   6.807307 H        1 UNL1     0.0623
     42 H         -6.759738   4.074939   6.724316 H        1 UNL1     0.0654
     43 H         -8.719885   1.253971   9.30295 H        1 UNL1     0.0654
     44 H         -6.712783   -0.114369   9.374663 H        1 UNL1     0.0623
     45 H         -8.752039   4.401497   8.394608 H        1 UNL1     0.2921
     46 H         -5.631032   -4.03552   6.244914 H        1 UNL1     0.2922
     47 H         0.506994   0.256656   2.267214 H        1 UNL1     0.2126
     48 H         1.173149   -1.7786   -0.502195 H        1 UNL1     0.2101
     49 H         -2.135724   0.980472   -0.977647 H        1 UNL1     0.2100
     50 H         -2.780415   -3.22293   -1.3021 H        1 UNL1     0.2102
@<TRIPOS>BOND
     1     1     2    1
     2     1     6    1
     3     2     3    1
     4     3     4    1
     5     3    29    1
     6     3    33    1
     7     4     5    1
     8     5     6    1
     9     5     7    1
    10     5    35    1
    11     7     8    1
    12     8     9   ar
    13     8    13   ar
    14     9    10   ar
    15     9    36    1
    16    10    11   ar
    17    10    26    1
    18    11    12   ar
    19    11    14    1
    20    12    13   ar
    21    12    17    1
    22    13    37    1
    23    14    15    1
    24    14    25    2
    25    15    16    1
    26    15    38    1
    27    15    39    1
    28    16    17    1
    29    16    18    1
    30    16    40    1
    31    18    19   ar
    32    18    23   ar
    33    19    20   ar
    34    19    41    1
    35    20    21   ar
    36    20    42    1
    37    21    22   ar
    38    21    24    1
    39    22    23   ar
    40    22    43    1
    41    23    44    1
    42    24    45    1
    43    26    46    1
    44    27    47    1
    45    28    48    1
    46    29    49    1
    47    30    50    1
    48     1    31    1
    49     1    27    1
    50     2    32    1
    51     2    28    1
    52     4    34    1
    53     4    30    1
