@<TRIPOS>MOLECULE
*****
 50 53 0 0 0
SMALL
GASTEIGER

@<TRIPOS>ATOM
     1 C         1.295296   -0.182686   1.749182 C.3        1 UNL1     0.1889
     2 C         -0.015663   0.282423   1.059978 C.3        1 UNL1     0.1342
     3 C         -0.300443   1.787922   1.173278 C.3        1 UNL1     0.1174
     4 C         0.165003   2.381394   2.505295 C.3        1 UNL1     0.1456
     5 C         1.588304   1.934146   2.885486 C.3        1 UNL1     0.2326
     6 O         1.653447   0.510725   2.935481 O.3        1 UNL1     -0.3076
     7 O         2.612452   2.518838   2.060514 O.3        1 UNL1     -0.4605
     8 C         3.852818   2.67418   2.652874 C.ar        1 UNL1     0.1310
     9 C         4.543056   1.683578   3.359682 C.ar        1 UNL1     0.0226
     10 C         5.805826   1.933864   3.909838 C.ar        1 UNL1     0.1343
     11 C         6.419959   3.174756   3.745924 C.ar        1 UNL1     0.1007
     12 C         5.722966   4.18471   3.077359 C.ar        1 UNL1     0.1389
     13 C         4.452142   3.933614   2.526553 C.ar        1 UNL1     0.0229
     14 C         7.787719   3.467074   4.233712 C.2        1 UNL1     0.1740
     15 C         8.374888   4.770512   3.777827 C.3        1 UNL1     0.0520
     16 C         7.283896   5.831579   3.820608 C.3        1 UNL1     0.1322
     17 O         6.18632   5.473842   2.952034 O.3        1 UNL1     -0.4828
     18 C         6.867017   6.229894   5.238452 C.ar        1 UNL1     -0.0067
     19 C         6.006041   5.386178   5.969942 C.ar        1 UNL1     -0.0516
     20 C         5.567604   5.743434   7.250608 C.ar        1 UNL1     -0.0198
     21 C         5.9762   6.942488   7.806618 C.ar        1 UNL1     0.1169
     22 C         6.850433   7.778771   7.124574 C.ar        1 UNL1     -0.0198
     23 C         7.303705   7.413087   5.851437 C.ar        1 UNL1     -0.0516
     24 O         5.498534   7.274521   9.040308 O.3        1 UNL1     -0.5068
     25 O         8.450646   2.677469   4.901197 O.2        1 UNL1     -0.2917
     26 O         6.42547   0.925471   4.588638 O.3        1 UNL1     -0.5058
     27 O         2.392962   -0.296889   0.857626 O.3        1 UNL1     -0.3648
     28 O         -1.121477   -0.409744   1.6689 O.3        1 UNL1     -0.3841
     29 O         0.221132   2.489122   0.04261 O.3        1 UNL1     -0.3863
     30 O         -0.74457   1.972287   3.549804 O.3        1 UNL1     -0.3829
     31 H         1.120601   -1.207545   2.094473 H        1 UNL1     0.0937
     32 H         0.0   0.0   -0.0 H        1 UNL1     0.0671
     33 H         -1.389472   1.927676   1.126339 H        1 UNL1     0.0649
     34 H         0.129726   3.475513   2.459917 H        1 UNL1     0.0683
     35 H         1.713259   2.29547   3.913936 H        1 UNL1     0.1085
     36 H         4.144055   0.681625   3.473741 H        1 UNL1     0.0691
     37 H         3.929807   4.737062   2.011646 H        1 UNL1     0.0691
     38 H         8.746861   4.627402   2.757689 H        1 UNL1     0.0385
     39 H         9.22537   5.025008   4.419459 H        1 UNL1     0.0385
     40 H         7.701768   6.74373   3.373524 H        1 UNL1     0.0789
     41 H         5.663757   4.443978   5.551908 H        1 UNL1     0.0623
     42 H         4.89431   5.089905   7.799776 H        1 UNL1     0.0654
     43 H         7.188646   8.712941   7.556835 H        1 UNL1     0.0654
     44 H         7.994397   8.085389   5.351637 H        1 UNL1     0.0623
     45 H         4.528334   7.252299   9.00972 H        1 UNL1     0.2921
     46 H         6.891302   1.291299   5.357131 H        1 UNL1     0.2922
     47 H         3.208525   -0.464032   1.350354 H        1 UNL1     0.2126
     48 H         -1.160676   -0.111499   2.598009 H        1 UNL1     0.2101
     49 H         -0.068166   3.415155   0.066353 H        1 UNL1     0.2100
     50 H         -0.214269   1.585   4.276785 H        1 UNL1     0.2102
@<TRIPOS>BOND
     1     1     2    1
     2     1     6    1
     3     2     3    1
     4     3     4    1
     5     3    29    1
     6     3    33    1
     7     4     5    1
     8     5     6    1
     9     5     7    1
    10     5    35    1
    11     7     8    1
    12     8     9   ar
    13     8    13   ar
    14     9    10   ar
    15     9    36    1
    16    10    11   ar
    17    10    26    1
    18    11    12   ar
    19    11    14    1
    20    12    13   ar
    21    12    17    1
    22    13    37    1
    23    14    15    1
    24    14    25    2
    25    15    16    1
    26    15    38    1
    27    15    39    1
    28    16    17    1
    29    16    18    1
    30    16    40    1
    31    18    19   ar
    32    18    23   ar
    33    19    20   ar
    34    19    41    1
    35    20    21   ar
    36    20    42    1
    37    21    22   ar
    38    21    24    1
    39    22    23   ar
    40    22    43    1
    41    23    44    1
    42    24    45    1
    43    26    46    1
    44    27    47    1
    45    28    48    1
    46    29    49    1
    47    30    50    1
    48     1    31    1
    49     1    27    1
    50     2    32    1
    51     2    28    1
    52     4    34    1
    53     4    30    1
