@<TRIPOS>MOLECULE
*****
 50 53 0 0 0
SMALL
GASTEIGER

@<TRIPOS>ATOM
     1 C         -0.392739   -1.379286   1.647462 C.3        1 UNL1     0.1889
     2 C         -0.492789   -0.968009   0.153882 C.3        1 UNL1     0.1342
     3 C         -1.925375   -0.894087   -0.396298 C.3        1 UNL1     0.1174
     4 C         -2.850442   -1.950464   0.213159 C.3        1 UNL1     0.1456
     5 C         -2.720222   -2.036063   1.74485 C.3        1 UNL1     0.2326
     6 O         -1.366957   -2.306397   2.103267 O.3        1 UNL1     -0.3076
     7 O         -3.270774   -0.897306   2.431471 O.3        1 UNL1     -0.4605
     8 C         -3.813874   -1.146019   3.679153 C.ar        1 UNL1     0.1310
     9 C         -4.898656   -1.991061   3.936936 C.ar        1 UNL1     0.0226
     10 C         -5.365805   -2.191677   5.241324 C.ar        1 UNL1     0.1343
     11 C         -4.743773   -1.570037   6.323212 C.ar        1 UNL1     0.1007
     12 C         -3.685616   -0.6919   6.074288 C.ar        1 UNL1     0.1389
     13 C         -3.217774   -0.488295   4.762381 C.ar        1 UNL1     0.0229
     14 C         -5.142553   -1.811756   7.729164 C.2        1 UNL1     0.1740
     15 C         -4.227407   -1.238971   8.771265 C.3        1 UNL1     0.0520
     16 C         -3.775927   0.140099   8.310517 C.3        1 UNL1     0.1322
     17 O         -3.07106   0.055093   7.052341 O.3        1 UNL1     -0.4828
     18 C         -4.884103   1.195256   8.346781 C.ar        1 UNL1     -0.0067
     19 C         -4.5581   2.549709   8.129081 C.ar        1 UNL1     -0.0516
     20 C         -5.539468   3.545465   8.202221 C.ar        1 UNL1     -0.0198
     21 C         -6.84613   3.201282   8.498865 C.ar        1 UNL1     0.1169
     22 C         -7.204358   1.872458   8.685252 C.ar        1 UNL1     -0.0198
     23 C         -6.226656   0.874551   8.593954 C.ar        1 UNL1     -0.0516
     24 O         -7.767306   4.202179   8.599067 O.3        1 UNL1     -0.5068
     25 O         -6.108157   -2.499949   8.049295 O.2        1 UNL1     -0.2917
     26 O         -6.428524   -3.027455   5.424865 O.3        1 UNL1     -0.5058
     27 O         -0.266169   -0.27602   2.530395 O.3        1 UNL1     -0.3648
     28 O         0.219594   -1.938832   -0.635244 O.3        1 UNL1     -0.3841
     29 O         -2.445922   0.431557   -0.278691 O.3        1 UNL1     -0.3863
     30 O         -2.533317   -3.240914   -0.352404 O.3        1 UNL1     -0.3829
     31 H         0.551151   -1.923914   1.759407 H        1 UNL1     0.0937
     32 H         0.0   0.0   0.0 H        1 UNL1     0.0671
     33 H         -1.880838   -1.095355   -1.475755 H        1 UNL1     0.0649
     34 H         -3.89148   -1.732377   -0.04967 H        1 UNL1     0.0683
     35 H         -3.304441   -2.925954   2.010672 H        1 UNL1     0.1085
     36 H         -5.389413   -2.546597   3.145318 H        1 UNL1     0.0691
     37 H         -2.393156   0.201278   4.595086 H        1 UNL1     0.0691
     38 H         -3.375486   -1.919551   8.874073 H        1 UNL1     0.0385
     39 H         -4.754205   -1.202988   9.730935 H        1 UNL1     0.0385
     40 H         -3.019126   0.488806   9.026181 H        1 UNL1     0.0789
     41 H         -3.537973   2.846674   7.903688 H        1 UNL1     0.0623
     42 H         -5.273316   4.587664   8.044117 H        1 UNL1     0.0654
     43 H         -8.227486   1.590291   8.903198 H        1 UNL1     0.0654
     44 H         -6.543936   -0.154204   8.734815 H        1 UNL1     0.0623
     45 H         -7.297152   5.037169   8.755477 H        1 UNL1     0.2921
     46 H         -6.252825   -3.613651   6.177803 H        1 UNL1     0.2922
     47 H         0.45696   0.299824   2.24518 H        1 UNL1     0.2126
     48 H         1.170621   -1.788541   -0.471869 H        1 UNL1     0.2101
     49 H         -3.002542   0.49846   0.513453 H        1 UNL1     0.2100
     50 H         -2.780433   -3.223673   -1.300217 H        1 UNL1     0.2102
@<TRIPOS>BOND
     1     1     2    1
     2     1     6    1
     3     2     3    1
     4     3     4    1
     5     3    29    1
     6     3    33    1
     7     4     5    1
     8     5     6    1
     9     5     7    1
    10     5    35    1
    11     7     8    1
    12     8     9   ar
    13     8    13   ar
    14     9    10   ar
    15     9    36    1
    16    10    11   ar
    17    10    26    1
    18    11    12   ar
    19    11    14    1
    20    12    13   ar
    21    12    17    1
    22    13    37    1
    23    14    15    1
    24    14    25    2
    25    15    16    1
    26    15    38    1
    27    15    39    1
    28    16    17    1
    29    16    18    1
    30    16    40    1
    31    18    19   ar
    32    18    23   ar
    33    19    20   ar
    34    19    41    1
    35    20    21   ar
    36    20    42    1
    37    21    22   ar
    38    21    24    1
    39    22    23   ar
    40    22    43    1
    41    23    44    1
    42    24    45    1
    43    26    46    1
    44    27    47    1
    45    28    48    1
    46    29    49    1
    47    30    50    1
    48     1    31    1
    49     1    27    1
    50     2    32    1
    51     2    28    1
    52     4    34    1
    53     4    30    1
