@<TRIPOS>MOLECULE
*****
 50 53 0 0 0
SMALL
GASTEIGER

@<TRIPOS>ATOM
     1 C         -1.522595   0.052416   1.565172 C.3        1 UNL1     0.1889
     2 C         -0.657125   0.739217   0.474664 C.3        1 UNL1     0.1342
     3 C         0.193213   1.915804   0.97769 C.3        1 UNL1     0.1174
     4 C         -0.498514   2.718399   2.08244 C.3        1 UNL1     0.1456
     5 C         -1.113437   1.817956   3.169378 C.3        1 UNL1     0.2326
     6 O         -2.035085   0.90402   2.579331 O.3        1 UNL1     -0.3076
     7 O         -0.132554   1.173685   4.002507 O.3        1 UNL1     -0.4605
     8 C         -0.507151   0.945726   5.314467 C.ar        1 UNL1     0.1310
     9 C         -0.839961   1.935262   6.245787 C.ar        1 UNL1     0.0226
     10 C         -1.224378   1.601753   7.549972 C.ar        1 UNL1     0.1343
     11 C         -1.308359   0.268145   7.947811 C.ar        1 UNL1     0.1007
     12 C         -0.938969   -0.727142   7.03911 C.ar        1 UNL1     0.1389
     13 C         -0.54993   -0.391422   5.728624 C.ar        1 UNL1     0.0229
     14 C         -1.789085   -0.144006   9.286911 C.2        1 UNL1     0.1740
     15 C         -2.02717   -1.614521   9.467048 C.3        1 UNL1     0.0520
     16 C         -0.907035   -2.37306   8.76857 C.3        1 UNL1     0.1322
     17 O         -0.880688   -2.064098   7.357571 O.3        1 UNL1     -0.4828
     18 C         0.448381   -2.25369   9.469514 C.ar        1 UNL1     -0.0067
     19 C         1.52413   -3.056859   9.038357 C.ar        1 UNL1     -0.0516
     20 C         2.763311   -3.006879   9.687891 C.ar        1 UNL1     -0.0198
     21 C         2.936875   -2.165163   10.771966 C.ar        1 UNL1     0.1169
     22 C         1.906551   -1.337588   11.199036 C.ar        1 UNL1     -0.0198
     23 C         0.672889   -1.373869   10.538113 C.ar        1 UNL1     -0.0516
     24 O         4.146052   -2.171226   11.403041 O.3        1 UNL1     -0.5068
     25 O         -2.059986   0.651678   10.182448 O.2        1 UNL1     -0.2917
     26 O         -1.535196   2.614278   8.41007 O.3        1 UNL1     -0.5058
     27 O         -0.923841   -1.111749   2.111981 O.3        1 UNL1     -0.3648
     28 O         -1.532577   1.249729   -0.547914 O.3        1 UNL1     -0.3841
     29 O         1.500226   1.474069   1.350144 O.3        1 UNL1     -0.3863
     30 O         -1.546348   3.522602   1.498496 O.3        1 UNL1     -0.3829
     31 H         -2.422847   -0.317978   1.062745 H        1 UNL1     0.0937
     32 H         0.0   0.0   0.0 H        1 UNL1     0.0671
     33 H         0.346917   2.603239   0.134169 H        1 UNL1     0.0649
     34 H         0.214959   3.408821   2.545771 H        1 UNL1     0.0683
     35 H         -1.70092   2.510344   3.785285 H        1 UNL1     0.1085
     36 H         -0.848464   2.987086   5.981754 H        1 UNL1     0.0691
     37 H         -0.266111   -1.184881   5.040611 H        1 UNL1     0.0691
     38 H         -3.000203   -1.849369   9.022548 H        1 UNL1     0.0385
     39 H         -2.076318   -1.841697   10.537448 H        1 UNL1     0.0385
     40 H         -1.163227   -3.440332   8.811187 H        1 UNL1     0.0789
     41 H         1.410566   -3.732511   8.195594 H        1 UNL1     0.0623
     42 H         3.58152   -3.639866   9.353418 H        1 UNL1     0.0654
     43 H         2.036287   -0.663705   12.037464 H        1 UNL1     0.0654
     44 H         -0.106589   -0.705981   10.891929 H        1 UNL1     0.0623
     45 H         4.601697   -3.000393   11.184896 H        1 UNL1     0.2921
     46 H         -2.345657   2.390207   8.894175 H        1 UNL1     0.2922
     47 H         -0.361794   -0.877602   2.863737 H        1 UNL1     0.2126
     48 H         -1.105583   1.055153   -1.404389 H        1 UNL1     0.2101
     49 H         1.54324   1.343769   2.310855 H        1 UNL1     0.2100
     50 H         -1.828483   4.18141   2.166391 H        1 UNL1     0.2102
@<TRIPOS>BOND
     1     1     2    1
     2     1     6    1
     3     2     3    1
     4     3     4    1
     5     3    29    1
     6     3    33    1
     7     4     5    1
     8     5     6    1
     9     5     7    1
    10     5    35    1
    11     7     8    1
    12     8     9   ar
    13     8    13   ar
    14     9    10   ar
    15     9    36    1
    16    10    11   ar
    17    10    26    1
    18    11    12   ar
    19    11    14    1
    20    12    13   ar
    21    12    17    1
    22    13    37    1
    23    14    15    1
    24    14    25    2
    25    15    16    1
    26    15    38    1
    27    15    39    1
    28    16    17    1
    29    16    18    1
    30    16    40    1
    31    18    19   ar
    32    18    23   ar
    33    19    20   ar
    34    19    41    1
    35    20    21   ar
    36    20    42    1
    37    21    22   ar
    38    21    24    1
    39    22    23   ar
    40    22    43    1
    41    23    44    1
    42    24    45    1
    43    26    46    1
    44    27    47    1
    45    28    48    1
    46    29    49    1
    47    30    50    1
    48     1    31    1
    49     1    27    1
    50     2    32    1
    51     2    28    1
    52     4    34    1
    53     4    30    1
