@<TRIPOS>MOLECULE
*****
 50 53 0 0 0
SMALL
GASTEIGER

@<TRIPOS>ATOM
     1 C         -0.371054   -1.397585   1.637034 C.3        1 UNL1     0.1889
     2 C         -0.487883   -0.971268   0.148899 C.3        1 UNL1     0.1342
     3 C         -1.926304   -0.896695   -0.385749 C.3        1 UNL1     0.1174
     4 C         -2.841446   -1.962543   0.2222 C.3        1 UNL1     0.1456
     5 C         -2.695163   -2.063488   1.751505 C.3        1 UNL1     0.2326
     6 O         -1.337367   -2.332761   2.093191 O.3        1 UNL1     -0.3076
     7 O         -3.242481   -0.933817   2.455498 O.3        1 UNL1     -0.4605
     8 C         -3.77185   -1.197297   3.706048 C.ar        1 UNL1     0.1310
     9 C         -3.062731   -1.155771   4.911339 C.ar        1 UNL1     0.0226
     10 C         -3.694056   -1.422649   6.132039 C.ar        1 UNL1     0.1343
     11 C         -5.056562   -1.71449   6.179421 C.ar        1 UNL1     0.1007
     12 C         -5.76626   -1.799169   4.978612 C.ar        1 UNL1     0.1389
     13 C         -5.130651   -1.533378   3.7511 C.ar        1 UNL1     0.0229
     14 C         -5.792009   -1.922105   7.448345 C.2        1 UNL1     0.1740
     15 C         -7.285446   -2.003185   7.327433 C.3        1 UNL1     0.0520
     16 C         -7.624858   -2.812341   6.083237 C.3        1 UNL1     0.1322
     17 O         -7.084538   -2.184141   4.899815 O.3        1 UNL1     -0.4828
     18 C         -7.30524   -4.303652   6.211926 C.ar        1 UNL1     -0.0067
     19 C         -6.066919   -4.789403   5.744142 C.ar        1 UNL1     -0.0516
     20 C         -5.762107   -6.15452   5.803373 C.ar        1 UNL1     -0.0198
     21 C         -6.688   -7.043015   6.320215 C.ar        1 UNL1     0.1169
     22 C         -7.902541   -6.590775   6.819421 C.ar        1 UNL1     -0.0198
     23 C         -8.200151   -5.223403   6.777245 C.ar        1 UNL1     -0.0516
     24 O         -6.371234   -8.369671   6.326913 O.3        1 UNL1     -0.5068
     25 O         -5.247396   -1.94881   8.548876 O.2        1 UNL1     -0.2917
     26 O         -2.945655   -1.36674   7.271492 O.3        1 UNL1     -0.5058
     27 O         -0.239147   -0.303053   2.53 O.3        1 UNL1     -0.3648
     28 O         0.219629   -1.931391   -0.657511 O.3        1 UNL1     -0.3841
     29 O         -2.450117   0.425831   -0.249082 O.3        1 UNL1     -0.3863
     30 O         -2.525779   -3.245967   -0.359923 O.3        1 UNL1     -0.3829
     31 H         0.575785   -1.940026   1.733637 H        1 UNL1     0.0937
     32 H         0.0   0.0   0.0 H        1 UNL1     0.0671
     33 H         -1.892207   -1.086653   -1.467633 H        1 UNL1     0.0649
     34 H         -3.885872   -1.745407   -0.027655 H        1 UNL1     0.0683
     35 H         -3.273584   -2.958119   2.01408 H        1 UNL1     0.1085
     36 H         -2.014393   -0.880382   4.946946 H        1 UNL1     0.0691
     37 H         -5.705142   -1.607033   2.830216 H        1 UNL1     0.0691
     38 H         -7.667438   -0.979707   7.249319 H        1 UNL1     0.0385
     39 H         -7.69542   -2.452706   8.238274 H        1 UNL1     0.0385
     40 H         -8.7138   -2.759019   5.949514 H        1 UNL1     0.0789
     41 H         -5.326905   -4.11351   5.325575 H        1 UNL1     0.0623
     42 H         -4.808602   -6.518286   5.428523 H        1 UNL1     0.0654
     43 H         -8.628731   -7.276042   7.240098 H        1 UNL1     0.0654
     44 H         -9.154028   -4.903898   7.185756 H        1 UNL1     0.0623
     45 H         -6.072892   -8.609247   7.219276 H        1 UNL1     0.2921
     46 H         -2.003517   -1.359065   7.039697 H        1 UNL1     0.2922
     47 H         0.630191   0.109014   2.428448 H        1 UNL1     0.2126
     48 H         0.053989   -1.690263   -1.589258 H        1 UNL1     0.2101
     49 H         -2.99877   0.482603   0.549386 H        1 UNL1     0.2100
     50 H         -1.991227   -3.748286   0.289416 H        1 UNL1     0.2102
@<TRIPOS>BOND
     1     1     2    1
     2     1     6    1
     3     2     3    1
     4     3     4    1
     5     3    29    1
     6     3    33    1
     7     4     5    1
     8     5     6    1
     9     5     7    1
    10     5    35    1
    11     7     8    1
    12     8     9   ar
    13     8    13   ar
    14     9    10   ar
    15     9    36    1
    16    10    11   ar
    17    10    26    1
    18    11    12   ar
    19    11    14    1
    20    12    13   ar
    21    12    17    1
    22    13    37    1
    23    14    15    1
    24    14    25    2
    25    15    16    1
    26    15    38    1
    27    15    39    1
    28    16    17    1
    29    16    18    1
    30    16    40    1
    31    18    19   ar
    32    18    23   ar
    33    19    20   ar
    34    19    41    1
    35    20    21   ar
    36    20    42    1
    37    21    22   ar
    38    21    24    1
    39    22    23   ar
    40    22    43    1
    41    23    44    1
    42    24    45    1
    43    26    46    1
    44    27    47    1
    45    28    48    1
    46    29    49    1
    47    30    50    1
    48     1    31    1
    49     1    27    1
    50     2    32    1
    51     2    28    1
    52     4    34    1
    53     4    30    1
