@<TRIPOS>MOLECULE
*****
 50 53 0 0 0
SMALL
GASTEIGER

@<TRIPOS>ATOM
     1 C         -0.374491   -1.604343   1.4341 C.3        1 UNL1     0.1889
     2 C         -0.377691   -1.029974   -0.008131 C.3        1 UNL1     0.1342
     3 C         -1.74626   -1.056357   -0.705831 C.3        1 UNL1     0.1174
     4 C         -2.58441   -2.27851   -0.322469 C.3        1 UNL1     0.1456
     5 C         -2.59689   -2.532904   1.195916 C.3        1 UNL1     0.2326
     6 O         -1.262442   -2.686173   1.674063 O.3        1 UNL1     -0.3076
     7 O         -3.353997   -1.556851   1.934448 O.3        1 UNL1     -0.4605
     8 C         -3.348623   -1.699873   3.310327 C.ar        1 UNL1     0.1310
     9 C         -2.640013   -2.67465   4.020947 C.ar        1 UNL1     0.0226
     10 C         -2.685237   -2.726916   5.419205 C.ar        1 UNL1     0.1343
     11 C         -3.421914   -1.79002   6.14265 C.ar        1 UNL1     0.1007
     12 C         -4.166529   -0.837095   5.44246 C.ar        1 UNL1     0.1389
     13 C         -4.123001   -0.786386   4.036414 C.ar        1 UNL1     0.0229
     14 C         -3.43763   -1.74724   7.623216 C.2        1 UNL1     0.1740
     15 C         -4.097664   -0.544554   8.231041 C.3        1 UNL1     0.0520
     16 C         -5.347733   -0.221704   7.424163 C.3        1 UNL1     0.1322
     17 O         -5.010666   0.064082   6.048742 O.3        1 UNL1     -0.4828
     18 C         -6.476207   -1.240307   7.602265 C.ar        1 UNL1     -0.0067
     19 C         -6.370919   -2.505032   6.987776 C.ar        1 UNL1     -0.0516
     20 C         -7.405732   -3.442278   7.091198 C.ar        1 UNL1     -0.0198
     21 C         -8.55148   -3.124859   7.79854 C.ar        1 UNL1     0.1169
     22 C         -8.670504   -1.900222   8.442696 C.ar        1 UNL1     -0.0198
     23 C         -7.628076   -0.969798   8.354871 C.ar        1 UNL1     -0.0516
     24 O         -9.554012   -4.048492   7.845797 O.3        1 UNL1     -0.5068
     25 O         -2.884288   -2.585755   8.32975 O.2        1 UNL1     -0.2917
     26 O         -1.972275   -3.70308   6.051956 O.3        1 UNL1     -0.5058
     27 O         -0.478341   -0.608662   2.439396 O.3        1 UNL1     -0.3648
     28 O         0.527792   -1.809352   -0.811484 O.3        1 UNL1     -0.3841
     29 O         -2.441228   0.176174   -0.50578 O.3        1 UNL1     -0.3863
     30 O         -2.050249   -3.445752   -0.984215 O.3        1 UNL1     -0.3829
     31 H         0.615529   -2.045622   1.592885 H        1 UNL1     0.0937
     32 H         0.0   0.0   0.0 H        1 UNL1     0.0671
     33 H         -1.569482   -1.119209   -1.78866 H        1 UNL1     0.0649
     34 H         -3.613547   -2.15218   -0.676471 H        1 UNL1     0.0683
     35 H         -3.085904   -3.509964   1.296412 H        1 UNL1     0.1085
     36 H         -2.004579   -3.396524   3.519706 H        1 UNL1     0.0691
     37 H         -4.71268   -0.035517   3.514909 H        1 UNL1     0.0691
     38 H         -3.379448   0.281477   8.194078 H        1 UNL1     0.0385
     39 H         -4.325535   -0.752915   9.281964 H        1 UNL1     0.0385
     40 H         -5.747325   0.725347   7.811385 H        1 UNL1     0.0789
     41 H         -5.485682   -2.774917   6.419297 H        1 UNL1     0.0623
     42 H         -7.317649   -4.409655   6.6029 H        1 UNL1     0.0654
     43 H         -9.557045   -1.647111   9.011809 H        1 UNL1     0.0654
     44 H         -7.750441   -0.02705   8.879369 H        1 UNL1     0.0623
     45 H         -10.289829   -3.730762   7.297767 H        1 UNL1     0.2921
     46 H         -2.521983   -4.111054   6.739554 H        1 UNL1     0.2922
     47 H         -1.39866   -0.327424   2.538283 H        1 UNL1     0.2126
     48 H         0.087058   -1.951842   -1.671241 H        1 UNL1     0.2101
     49 H         -3.241599   0.196524   -1.05422 H        1 UNL1     0.2100
     50 H         -2.344432   -3.423808   -1.918392 H        1 UNL1     0.2102
@<TRIPOS>BOND
     1     1     2    1
     2     1     6    1
     3     2     3    1
     4     3     4    1
     5     3    29    1
     6     3    33    1
     7     4     5    1
     8     5     6    1
     9     5     7    1
    10     5    35    1
    11     7     8    1
    12     8     9   ar
    13     8    13   ar
    14     9    10   ar
    15     9    36    1
    16    10    11   ar
    17    10    26    1
    18    11    12   ar
    19    11    14    1
    20    12    13   ar
    21    12    17    1
    22    13    37    1
    23    14    15    1
    24    14    25    2
    25    15    16    1
    26    15    38    1
    27    15    39    1
    28    16    17    1
    29    16    18    1
    30    16    40    1
    31    18    19   ar
    32    18    23   ar
    33    19    20   ar
    34    19    41    1
    35    20    21   ar
    36    20    42    1
    37    21    22   ar
    38    21    24    1
    39    22    23   ar
    40    22    43    1
    41    23    44    1
    42    24    45    1
    43    26    46    1
    44    27    47    1
    45    28    48    1
    46    29    49    1
    47    30    50    1
    48     1    31    1
    49     1    27    1
    50     2    32    1
    51     2    28    1
    52     4    34    1
    53     4    30    1
