@<TRIPOS>MOLECULE
*****
 50 53 0 0 0
SMALL
GASTEIGER

@<TRIPOS>ATOM
     1 C         -0.405835   -1.368185   1.653534 C.3        1 UNL1     0.1889
     2 C         -0.495757   -0.966018   0.156832 C.3        1 UNL1     0.1342
     3 C         -1.924745   -0.892585   -0.402692 C.3        1 UNL1     0.1174
     4 C         -2.855782   -1.943243   0.207559 C.3        1 UNL1     0.1456
     5 C         -2.735246   -2.019563   1.740534 C.3        1 UNL1     0.2326
     6 O         -1.384799   -2.290436   2.10903 O.3        1 UNL1     -0.3076
     7 O         -3.287664   -0.875422   2.416624 O.3        1 UNL1     -0.4605
     8 C         -2.379072   -0.054209   3.059739 C.ar        1 UNL1     0.1310
     9 C         -0.990729   -0.226835   3.061723 C.ar        1 UNL1     0.0226
     10 C         -0.150685   0.67143   3.730564 C.ar        1 UNL1     0.1343
     11 C         -0.677492   1.778544   4.394353 C.ar        1 UNL1     0.1007
     12 C         -2.065122   1.938848   4.433967 C.ar        1 UNL1     0.1389
     13 C         -2.909734   1.034045   3.763601 C.ar        1 UNL1     0.0229
     14 C         0.16893   2.804663   5.046121 C.2        1 UNL1     0.1740
     15 C         -0.548813   4.036123   5.515058 C.3        1 UNL1     0.0520
     16 C         -1.879653   3.615827   6.123476 C.3        1 UNL1     0.1322
     17 O         -2.696023   2.931074   5.147914 O.3        1 UNL1     -0.4828
     18 C         -1.742121   2.884584   7.461046 C.ar        1 UNL1     -0.0067
     19 C         -1.300062   3.594608   8.596239 C.ar        1 UNL1     -0.0516
     20 C         -1.11805   2.945814   9.823391 C.ar        1 UNL1     -0.0198
     21 C         -1.367053   1.58889   9.926269 C.ar        1 UNL1     0.1169
     22 C         -1.835359   0.869299   8.834612 C.ar        1 UNL1     -0.0198
     23 C         -2.035107   1.52159   7.612043 C.ar        1 UNL1     -0.0516
     24 O         -1.142313   0.98366   11.127764 O.3        1 UNL1     -0.5068
     25 O         1.390463   2.715109   5.137355 O.2        1 UNL1     -0.2917
     26 O         1.194458   0.445793   3.695024 O.3        1 UNL1     -0.5058
     27 O         -0.282438   -0.259701   2.530359 O.3        1 UNL1     -0.3648
     28 O         0.219475   -1.943199   -0.621798 O.3        1 UNL1     -0.3841
     29 O         -2.443238   0.434831   -0.296569 O.3        1 UNL1     -0.3863
     30 O         -2.537855   -3.23784   -0.347986 O.3        1 UNL1     -0.3829
     31 H         0.536201   -1.914041   1.774729 H        1 UNL1     0.0937
     32 H         0.0   0.0   0.0 H        1 UNL1     0.0671
     33 H         -1.873934   -1.100666   -1.480579 H        1 UNL1     0.0649
     34 H         -3.894711   -1.724662   -0.063087 H        1 UNL1     0.0683
     35 H         -3.322962   -2.906579   2.008247 H        1 UNL1     0.1085
     36 H         -0.51594   -1.035859   2.517503 H        1 UNL1     0.0691
     37 H         -3.986701   1.180421   3.810606 H        1 UNL1     0.0691
     38 H         -0.699398   4.683403   4.644495 H        1 UNL1     0.0385
     39 H         0.084369   4.569383   6.23234 H        1 UNL1     0.0385
     40 H         -2.436376   4.535033   6.350721 H        1 UNL1     0.0789
     41 H         -1.088998   4.658489   8.539135 H        1 UNL1     0.0623
     42 H         -0.765355   3.501893   10.688488 H        1 UNL1     0.0654
     43 H         -2.047876   -0.190588   8.908007 H        1 UNL1     0.0654
     44 H         -2.411993   0.930617   6.782855 H        1 UNL1     0.0623
     45 H         -0.261318   1.243844   11.442199 H        1 UNL1     0.2921
     46 H         1.663811   1.240422   3.994497 H        1 UNL1     0.2922
     47 H         -1.157489   0.064537   2.785342 H        1 UNL1     0.2126
     48 H         -0.32477   -2.123712   -1.412333 H        1 UNL1     0.2101
     49 H         -3.00462   0.507812   0.491669 H        1 UNL1     0.2100
     50 H         -2.016907   -3.732178   0.318314 H        1 UNL1     0.2102
@<TRIPOS>BOND
     1     1     2    1
     2     1     6    1
     3     2     3    1
     4     3     4    1
     5     3    29    1
     6     3    33    1
     7     4     5    1
     8     5     6    1
     9     5     7    1
    10     5    35    1
    11     7     8    1
    12     8     9   ar
    13     8    13   ar
    14     9    10   ar
    15     9    36    1
    16    10    11   ar
    17    10    26    1
    18    11    12   ar
    19    11    14    1
    20    12    13   ar
    21    12    17    1
    22    13    37    1
    23    14    15    1
    24    14    25    2
    25    15    16    1
    26    15    38    1
    27    15    39    1
    28    16    17    1
    29    16    18    1
    30    16    40    1
    31    18    19   ar
    32    18    23   ar
    33    19    20   ar
    34    19    41    1
    35    20    21   ar
    36    20    42    1
    37    21    22   ar
    38    21    24    1
    39    22    23   ar
    40    22    43    1
    41    23    44    1
    42    24    45    1
    43    26    46    1
    44    27    47    1
    45    28    48    1
    46    29    49    1
    47    30    50    1
    48     1    31    1
    49     1    27    1
    50     2    32    1
    51     2    28    1
    52     4    34    1
    53     4    30    1
