@<TRIPOS>MOLECULE
*****
 50 53 0 0 0
SMALL
GASTEIGER

@<TRIPOS>ATOM
     1 C         -0.705523   -1.104896   1.747068 C.3        1 UNL1     0.1889
     2 C         -0.564756   -0.91619   0.212625 C.3        1 UNL1     0.1342
     3 C         -1.896098   -0.873235   -0.552977 C.3        1 UNL1     0.1174
     4 C         -2.958815   -1.793721   0.052379 C.3        1 UNL1     0.1456
     5 C         -3.056541   -1.655993   1.582688 C.3        1 UNL1     0.2326
     6 O         -1.787138   -1.918635   2.176408 O.3        1 UNL1     -0.3076
     7 O         -3.634098   -0.409029   2.010273 O.3        1 UNL1     -0.4605
     8 C         -4.365274   -0.450424   3.183813 C.ar        1 UNL1     0.1310
     9 C         -5.317393   -1.4217   3.511519 C.ar        1 UNL1     0.0226
     10 C         -5.994995   -1.386776   4.736076 C.ar        1 UNL1     0.1343
     11 C         -5.719386   -0.392234   5.673501 C.ar        1 UNL1     0.1007
     12 C         -4.800428   0.60658   5.340831 C.ar        1 UNL1     0.1389
     13 C         -4.121164   0.572742   4.1084 C.ar        1 UNL1     0.0229
     14 C         -6.344343   -0.35549   7.015973 C.2        1 UNL1     0.1740
     15 C         -5.769655   0.647723   7.972449 C.3        1 UNL1     0.0520
     16 C         -5.479648   1.931658   7.207359 C.3        1 UNL1     0.1322
     17 O         -4.532812   1.691583   6.142964 O.3        1 UNL1     -0.4828
     18 C         -6.737579   2.690683   6.778159 C.ar        1 UNL1     -0.0067
     19 C         -7.03996   3.928039   7.382915 C.ar        1 UNL1     -0.0516
     20 C         -8.20683   4.625232   7.047805 C.ar        1 UNL1     -0.0198
     21 C         -9.081109   4.09334   6.116915 C.ar        1 UNL1     0.1169
     22 C         -8.794205   2.893151   5.479679 C.ar        1 UNL1     -0.0198
     23 C         -7.618251   2.204754   5.801079 C.ar        1 UNL1     -0.0516
     24 O         -10.226138   4.782319   5.843751 O.3        1 UNL1     -0.5068
     25 O         -7.221089   -1.136988   7.375227 O.2        1 UNL1     -0.2917
     26 O         -6.91254   -2.36307   4.99404 O.3        1 UNL1     -0.5058
     27 O         -0.644629   0.111776   2.474246 O.3        1 UNL1     -0.3648
     28 O         0.197146   -2.018187   -0.314456 O.3        1 UNL1     -0.3841
     29 O         -2.350996   0.473024   -0.703924 O.3        1 UNL1     -0.3863
     30 O         -2.638076   -3.164283   -0.270694 O.3        1 UNL1     -0.3829
     31 H         0.179334   -1.660453   2.076405 H        1 UNL1     0.0937
     32 H         0.0   0.0   -0.0 H        1 UNL1     0.0671
     33 H         -1.707636   -1.233726   -1.573883 H        1 UNL1     0.0649
     34 H         -3.936621   -1.57976   -0.393172 H        1 UNL1     0.0683
     35 H         -3.723299   -2.475106   1.879954 H        1 UNL1     0.1085
     36 H         -5.536041   -2.252165   2.849219 H        1 UNL1     0.0691
     37 H         -3.411282   1.362751   3.872928 H        1 UNL1     0.0691
     38 H         -4.851347   0.220068   8.388801 H        1 UNL1     0.0385
     39 H         -6.476424   0.806034   8.794151 H        1 UNL1     0.0385
     40 H         -4.953528   2.606852   7.895713 H        1 UNL1     0.0789
     41 H         -6.374426   4.362335   8.123254 H        1 UNL1     0.0623
     42 H         -8.434784   5.572694   7.529845 H        1 UNL1     0.0654
     43 H         -9.464467   2.474974   4.738203 H        1 UNL1     0.0654
     44 H         -7.420642   1.275183   5.276013 H        1 UNL1     0.0623
     45 H         -10.098261   5.273926   5.016293 H        1 UNL1     0.2921
     46 H         -6.859897   -2.617674   5.928822 H        1 UNL1     0.2922
     47 H         0.166542   0.591787   2.256413 H        1 UNL1     0.2126
     48 H         1.121622   -1.879586   -0.03185 H        1 UNL1     0.2101
     49 H         -3.011503   0.676528   -0.022667 H        1 UNL1     0.2100
     50 H         -2.744167   -3.27884   -1.237821 H        1 UNL1     0.2102
@<TRIPOS>BOND
     1     1     2    1
     2     1     6    1
     3     2     3    1
     4     3     4    1
     5     3    29    1
     6     3    33    1
     7     4     5    1
     8     5     6    1
     9     5     7    1
    10     5    35    1
    11     7     8    1
    12     8     9   ar
    13     8    13   ar
    14     9    10   ar
    15     9    36    1
    16    10    11   ar
    17    10    26    1
    18    11    12   ar
    19    11    14    1
    20    12    13   ar
    21    12    17    1
    22    13    37    1
    23    14    15    1
    24    14    25    2
    25    15    16    1
    26    15    38    1
    27    15    39    1
    28    16    17    1
    29    16    18    1
    30    16    40    1
    31    18    19   ar
    32    18    23   ar
    33    19    20   ar
    34    19    41    1
    35    20    21   ar
    36    20    42    1
    37    21    22   ar
    38    21    24    1
    39    22    23   ar
    40    22    43    1
    41    23    44    1
    42    24    45    1
    43    26    46    1
    44    27    47    1
    45    28    48    1
    46    29    49    1
    47    30    50    1
    48     1    31    1
    49     1    27    1
    50     2    32    1
    51     2    28    1
    52     4    34    1
    53     4    30    1
