@<TRIPOS>MOLECULE
*****
 50 53 0 0 0
SMALL
GASTEIGER

@<TRIPOS>ATOM
     1 C         0.162158   -1.805197   1.218923 C.3        1 UNL1     0.1889
     2 C         -0.372154   -1.031886   -0.01657 C.3        1 UNL1     0.1342
     3 C         -1.902844   -1.010499   -0.146935 C.3        1 UNL1     0.1174
     4 C         -2.558054   -2.305648   0.339281 C.3        1 UNL1     0.1456
     5 C         -2.003694   -2.773912   1.697139 C.3        1 UNL1     0.2326
     6 O         -0.590476   -2.943026   1.612982 O.3        1 UNL1     -0.3076
     7 O         -2.409427   -1.942336   2.799493 O.3        1 UNL1     -0.4605
     8 C         -2.569728   -2.582786   4.015081 C.ar        1 UNL1     0.1310
     9 C         -3.488156   -3.604989   4.277551 C.ar        1 UNL1     0.0226
     10 C         -3.56278   -4.204165   5.540612 C.ar        1 UNL1     0.1343
     11 C         -2.703623   -3.811612   6.566083 C.ar        1 UNL1     0.1007
     12 C         -1.81025   -2.763755   6.328042 C.ar        1 UNL1     0.1389
     13 C         -1.737222   -2.159645   5.058732 C.ar        1 UNL1     0.0229
     14 C         -2.682089   -4.467565   7.89402 C.2        1 UNL1     0.1740
     15 C         -1.549942   -4.071394   8.795597 C.3        1 UNL1     0.0520
     16 C         -1.326966   -2.571588   8.658409 C.3        1 UNL1     0.1322
     17 O         -0.994514   -2.225108   7.295875 O.3        1 UNL1     -0.4828
     18 C         -2.442653   -1.723893   9.274346 C.ar        1 UNL1     -0.0067
     19 C         -2.176756   -0.965175   10.432733 C.ar        1 UNL1     -0.0516
     20 C         -3.186801   -0.216516   11.048591 C.ar        1 UNL1     -0.0198
     21 C         -4.465729   -0.224134   10.521227 C.ar        1 UNL1     0.1169
     22 C         -4.7505   -0.934691   9.362412 C.ar        1 UNL1     -0.0198
     23 C         -3.736237   -1.668678   8.735841 C.ar        1 UNL1     -0.0516
     24 O         -5.432434   0.486666   11.169799 O.3        1 UNL1     -0.5068
     25 O         -3.478317   -5.340264   8.230028 O.2        1 UNL1     -0.2917
     26 O         -4.481173   -5.194937   5.731691 O.3        1 UNL1     -0.5058
     27 O         0.462292   -0.967438   2.323851 O.3        1 UNL1     -0.3648
     28 O         0.150347   -1.654083   -1.205085 O.3        1 UNL1     -0.3841
     29 O         -2.44861   0.153773   0.476558 O.3        1 UNL1     -0.3863
     30 O         -2.33358   -3.345705   -0.637235 O.3        1 UNL1     -0.3829
     31 H         1.130877   -2.226759   0.929186 H        1 UNL1     0.0937
     32 H         0.0   0.0   0.0 H        1 UNL1     0.0671
     33 H         -2.147189   -0.911806   -1.213834 H        1 UNL1     0.0649
     34 H         -3.642245   -2.169287   0.418877 H        1 UNL1     0.0683
     35 H         -2.437179   -3.773144   1.829447 H        1 UNL1     0.1085
     36 H         -4.144946   -3.9932   3.506811 H        1 UNL1     0.0691
     37 H         -1.033938   -1.345089   4.899411 H        1 UNL1     0.0691
     38 H         -0.663836   -4.632854   8.480786 H        1 UNL1     0.0385
     39 H         -1.791404   -4.361756   9.823783 H        1 UNL1     0.0385
     40 H         -0.423735   -2.324747   9.232659 H        1 UNL1     0.0789
     41 H         -1.183279   -0.949941   10.871392 H        1 UNL1     0.0623
     42 H         -2.972093   0.354965   11.948214 H        1 UNL1     0.0654
     43 H         -5.744988   -0.935519   8.932407 H        1 UNL1     0.0654
     44 H         -3.991653   -2.203625   7.826205 H        1 UNL1     0.0623
     45 H         -5.55639   1.330303   10.70544 H        1 UNL1     0.2921
     46 H         -4.096293   -5.889748   6.288932 H        1 UNL1     0.2922
     47 H         1.417891   -0.937493   2.471476 H        1 UNL1     0.2126
     48 H         -0.583768   -1.689312   -1.848176 H        1 UNL1     0.2101
     49 H         -2.766931   -0.0669   1.366372 H        1 UNL1     0.2100
     50 H         -2.820761   -3.104365   -1.452173 H        1 UNL1     0.2102
@<TRIPOS>BOND
     1     1     2    1
     2     1     6    1
     3     2     3    1
     4     3     4    1
     5     3    29    1
     6     3    33    1
     7     4     5    1
     8     5     6    1
     9     5     7    1
    10     5    35    1
    11     7     8    1
    12     8     9   ar
    13     8    13   ar
    14     9    10   ar
    15     9    36    1
    16    10    11   ar
    17    10    26    1
    18    11    12   ar
    19    11    14    1
    20    12    13   ar
    21    12    17    1
    22    13    37    1
    23    14    15    1
    24    14    25    2
    25    15    16    1
    26    15    38    1
    27    15    39    1
    28    16    17    1
    29    16    18    1
    30    16    40    1
    31    18    19   ar
    32    18    23   ar
    33    19    20   ar
    34    19    41    1
    35    20    21   ar
    36    20    42    1
    37    21    22   ar
    38    21    24    1
    39    22    23   ar
    40    22    43    1
    41    23    44    1
    42    24    45    1
    43    26    46    1
    44    27    47    1
    45    28    48    1
    46    29    49    1
    47    30    50    1
    48     1    31    1
    49     1    27    1
    50     2    32    1
    51     2    28    1
    52     4    34    1
    53     4    30    1
