@<TRIPOS>MOLECULE
*****
 50 53 0 0 0
SMALL
GASTEIGER

@<TRIPOS>ATOM
     1 C         -0.330976   -1.327505   1.702642 C.3        1 UNL1     0.1889
     2 C         -0.461997   -0.975479   0.196371 C.3        1 UNL1     0.1342
     3 C         -1.90298   -0.963837   -0.33645 C.3        1 UNL1     0.1174
     4 C         -2.788665   -2.023094   0.324347 C.3        1 UNL1     0.1456
     5 C         -2.636628   -2.047506   1.856226 C.3        1 UNL1     0.2326
     6 O         -1.271547   -2.264819   2.205796 O.3        1 UNL1     -0.3076
     7 O         -3.211854   -0.900329   2.507702 O.3        1 UNL1     -0.4605
     8 C         -4.124674   -1.167872   3.512047 C.ar        1 UNL1     0.1310
     9 C         -5.167441   -2.097208   3.432845 C.ar        1 UNL1     0.0226
     10 C         -6.031691   -2.309101   4.513621 C.ar        1 UNL1     0.1343
     11 C         -5.859292   -1.613217   5.709391 C.ar        1 UNL1     0.1007
     12 C         -4.846937   -0.653013   5.786382 C.ar        1 UNL1     0.1389
     13 C         -3.979715   -0.438244   4.698617 C.ar        1 UNL1     0.0229
     14 C         -6.690678   -1.857997   6.910654 C.2        1 UNL1     0.1740
     15 C         -6.226205   -1.186462   8.169564 C.3        1 UNL1     0.0520
     16 C         -5.748413   0.216056   7.819399 C.3        1 UNL1     0.1322
     17 O         -4.655697   0.164856   6.875778 O.3        1 UNL1     -0.4828
     18 C         -6.878149   1.172685   7.430449 C.ar        1 UNL1     -0.0067
     19 C         -6.755956   1.949057   6.259753 C.ar        1 UNL1     -0.0516
     20 C         -7.749019   2.868118   5.900424 C.ar        1 UNL1     -0.0198
     21 C         -8.863067   3.025067   6.705464 C.ar        1 UNL1     0.1169
     22 C         -9.027742   2.250973   7.846735 C.ar        1 UNL1     -0.0198
     23 C         -8.043612   1.318648   8.196469 C.ar        1 UNL1     -0.0516
     24 O         -9.791197   3.95675   6.343606 O.3        1 UNL1     -0.5068
     25 O         -7.654226   -2.619524   6.922321 O.2        1 UNL1     -0.2917
     26 O         -7.029355   -3.228911   4.371495 O.3        1 UNL1     -0.5058
     27 O         -0.225902   -0.188766   2.542296 O.3        1 UNL1     -0.3648
     28 O         0.268721   -1.954045   -0.56597 O.3        1 UNL1     -0.3841
     29 O         -2.460928   0.3496   -0.260876 O.3        1 UNL1     -0.3863
     30 O         -2.440735   -3.324045   -0.197344 O.3        1 UNL1     -0.3829
     31 H         0.629928   -1.839917   1.821709 H        1 UNL1     0.0937
     32 H         0.0   0.0   0.0 H        1 UNL1     0.0671
     33 H         -1.866163   -1.203973   -1.408223 H        1 UNL1     0.0649
     34 H         -3.838929   -1.845325   0.067939 H        1 UNL1     0.0683
     35 H         -3.190901   -2.943422   2.162812 H        1 UNL1     0.1085
     36 H         -5.319594   -2.70973   2.550924 H        1 UNL1     0.0691
     37 H         -3.200193   0.315837   4.783473 H        1 UNL1     0.0691
     38 H         -5.411473   -1.789001   8.58512 H        1 UNL1     0.0385
     39 H         -7.047379   -1.175221   8.894358 H        1 UNL1     0.0385
     40 H         -5.305741   0.643775   8.729134 H        1 UNL1     0.0789
     41 H         -5.886749   1.851053   5.615918 H        1 UNL1     0.0623
     42 H         -7.637585   3.469484   5.001562 H        1 UNL1     0.0654
     43 H         -9.903402   2.355054   8.476257 H        1 UNL1     0.0654
     44 H         -8.209971   0.723263   9.089041 H        1 UNL1     0.0623
     45 H         -9.36165   4.82735   6.327385 H        1 UNL1     0.2921
     46 H         -6.955989   -3.896566   5.071685 H        1 UNL1     0.2922
     47 H         0.516776   0.365116   2.263902 H        1 UNL1     0.2126
     48 H         1.20169   -1.887682   -0.285086 H        1 UNL1     0.2101
     49 H         -2.022474   0.931782   -0.901669 H        1 UNL1     0.2100
     50 H         -2.674243   -3.339727   -1.148628 H        1 UNL1     0.2102
@<TRIPOS>BOND
     1     1     2    1
     2     1     6    1
     3     2     3    1
     4     3     4    1
     5     3    29    1
     6     3    33    1
     7     4     5    1
     8     5     6    1
     9     5     7    1
    10     5    35    1
    11     7     8    1
    12     8     9   ar
    13     8    13   ar
    14     9    10   ar
    15     9    36    1
    16    10    11   ar
    17    10    26    1
    18    11    12   ar
    19    11    14    1
    20    12    13   ar
    21    12    17    1
    22    13    37    1
    23    14    15    1
    24    14    25    2
    25    15    16    1
    26    15    38    1
    27    15    39    1
    28    16    17    1
    29    16    18    1
    30    16    40    1
    31    18    19   ar
    32    18    23   ar
    33    19    20   ar
    34    19    41    1
    35    20    21   ar
    36    20    42    1
    37    21    22   ar
    38    21    24    1
    39    22    23   ar
    40    22    43    1
    41    23    44    1
    42    24    45    1
    43    26    46    1
    44    27    47    1
    45    28    48    1
    46    29    49    1
    47    30    50    1
    48     1    31    1
    49     1    27    1
    50     2    32    1
    51     2    28    1
    52     4    34    1
    53     4    30    1
