@<TRIPOS>MOLECULE
*****
 50 53 0 0 0
SMALL
GASTEIGER

@<TRIPOS>ATOM
     1 C         -0.339729   -1.335978   1.69427 C.3        1 UNL1     0.1889
     2 C         -0.462496   -0.976694   0.189018 C.3        1 UNL1     0.1342
     3 C         -1.900468   -0.963299   -0.351836 C.3        1 UNL1     0.1174
     4 C         -2.789204   -2.026282   0.298804 C.3        1 UNL1     0.1456
     5 C         -2.645766   -2.058068   1.831376 C.3        1 UNL1     0.2326
     6 O         -1.282539   -2.276283   2.187556 O.3        1 UNL1     -0.3076
     7 O         -3.225348   -0.914416   2.485184 O.3        1 UNL1     -0.4605
     8 C         -3.741856   -1.135904   3.749182 C.ar        1 UNL1     0.1310
     9 C         -4.559221   -2.21128   4.113575 C.ar        1 UNL1     0.0226
     10 C         -5.019322   -2.357863   5.427623 C.ar        1 UNL1     0.1343
     11 C         -4.653322   -1.444675   6.415536 C.ar        1 UNL1     0.1007
     12 C         -3.871195   -0.34425   6.054805 C.ar        1 UNL1     0.1389
     13 C         -3.410871   -0.195649   4.732894 C.ar        1 UNL1     0.0229
     14 C         -5.041706   -1.597107   7.83683 C.2        1 UNL1     0.1740
     15 C         -4.378951   -0.652415   8.795923 C.3        1 UNL1     0.0520
     16 C         -4.307362   0.722495   8.145957 C.3        1 UNL1     0.1322
     17 O         -3.541955   0.671747   6.921764 O.3        1 UNL1     -0.4828
     18 C         -5.666567   1.414169   8.016069 C.ar        1 UNL1     -0.0067
     19 C         -6.038201   1.984494   6.781229 C.ar        1 UNL1     -0.0516
     20 C         -7.253348   2.665511   6.641241 C.ar        1 UNL1     -0.0198
     21 C         -8.100342   2.789161   7.728043 C.ar        1 UNL1     0.1169
     22 C         -7.777386   2.209486   8.94809 C.ar        1 UNL1     -0.0198
     23 C         -6.570734   1.512539   9.083403 C.ar        1 UNL1     -0.0516
     24 O         -9.257783   3.491874   7.563949 O.3        1 UNL1     -0.5068
     25 O         -5.791907   -2.481309   8.24164 O.2        1 UNL1     -0.2917
     26 O         -5.814236   -3.428227   5.717481 O.3        1 UNL1     -0.5058
     27 O         -0.240074   -0.201282   2.540036 O.3        1 UNL1     -0.3648
     28 O         0.273095   -1.951107   -0.573957 O.3        1 UNL1     -0.3841
     29 O         -2.459637   0.349426   -0.273008 O.3        1 UNL1     -0.3863
     30 O         -2.43755   -3.324472   -0.22725 O.3        1 UNL1     -0.3829
     31 H         0.620804   -1.848401   1.816243 H        1 UNL1     0.0937
     32 H         0.0   0.0   0.0 H        1 UNL1     0.0671
     33 H         -1.857479   -1.198189   -1.424542 H        1 UNL1     0.0649
     34 H         -3.838119   -1.84788   0.037362 H        1 UNL1     0.0683
     35 H         -3.201204   -2.955791   2.130475 H        1 UNL1     0.1085
     36 H         -4.833035   -2.985144   3.404857 H        1 UNL1     0.0691
     37 H         -2.804226   0.670499   4.477428 H        1 UNL1     0.0691
     38 H         -3.377383   -1.04251   9.006192 H        1 UNL1     0.0385
     39 H         -4.94431   -0.638018   9.733975 H        1 UNL1     0.0385
     40 H         -3.716708   1.36533   8.812598 H        1 UNL1     0.0789
     41 H         -5.386653   1.909077   5.915523 H        1 UNL1     0.0623
     42 H         -7.523204   3.111205   5.687015 H        1 UNL1     0.0654
     43 H         -8.44026   2.287347   9.801581 H        1 UNL1     0.0654
     44 H         -6.355376   1.063233   10.048074 H        1 UNL1     0.0623
     45 H         -9.030992   4.402805   7.315982 H        1 UNL1     0.2921
     46 H         -5.414528   -3.942767   6.436435 H        1 UNL1     0.2922
     47 H         0.502132   0.355802   2.26682 H        1 UNL1     0.2126
     48 H         1.207225   -1.873831   -0.299802 H        1 UNL1     0.2101
     49 H         -2.018062   0.934937   -0.908604 H        1 UNL1     0.2100
     50 H         -2.670921   -3.337594   -1.178606 H        1 UNL1     0.2102
@<TRIPOS>BOND
     1     1     2    1
     2     1     6    1
     3     2     3    1
     4     3     4    1
     5     3    29    1
     6     3    33    1
     7     4     5    1
     8     5     6    1
     9     5     7    1
    10     5    35    1
    11     7     8    1
    12     8     9   ar
    13     8    13   ar
    14     9    10   ar
    15     9    36    1
    16    10    11   ar
    17    10    26    1
    18    11    12   ar
    19    11    14    1
    20    12    13   ar
    21    12    17    1
    22    13    37    1
    23    14    15    1
    24    14    25    2
    25    15    16    1
    26    15    38    1
    27    15    39    1
    28    16    17    1
    29    16    18    1
    30    16    40    1
    31    18    19   ar
    32    18    23   ar
    33    19    20   ar
    34    19    41    1
    35    20    21   ar
    36    20    42    1
    37    21    22   ar
    38    21    24    1
    39    22    23   ar
    40    22    43    1
    41    23    44    1
    42    24    45    1
    43    26    46    1
    44    27    47    1
    45    28    48    1
    46    29    49    1
    47    30    50    1
    48     1    31    1
    49     1    27    1
    50     2    32    1
    51     2    28    1
    52     4    34    1
    53     4    30    1
