@<TRIPOS>MOLECULE
*****
 50 53 0 0 0
SMALL
GASTEIGER

@<TRIPOS>ATOM
     1 C         -0.335693   -1.331659   1.698469 C.3        1 UNL1     0.1889
     2 C         -0.464065   -0.975166   0.193021 C.3        1 UNL1     0.1342
     3 C         -1.904316   -0.959353   -0.341667 C.3        1 UNL1     0.1174
     4 C         -2.792838   -2.018813   0.314983 C.3        1 UNL1     0.1456
     5 C         -2.642877   -2.047804   1.846987 C.3        1 UNL1     0.2326
     6 O         -1.278666   -2.268632   2.197747 O.3        1 UNL1     -0.3076
     7 O         -3.216839   -0.901393   2.500921 O.3        1 UNL1     -0.4605
     8 C         -3.728437   -1.119017   3.767584 C.ar        1 UNL1     0.1310
     9 C         -4.546852   -2.191633   4.137708 C.ar        1 UNL1     0.0226
     10 C         -5.001645   -2.334389   5.454024 C.ar        1 UNL1     0.1343
     11 C         -4.62916   -1.420076   6.438466 C.ar        1 UNL1     0.1007
     12 C         -3.845907   -0.322316   6.072104 C.ar        1 UNL1     0.1389
     13 C         -3.390919   -0.17756   4.74792 C.ar        1 UNL1     0.0229
     14 C         -5.01179   -1.568636   7.861729 C.2        1 UNL1     0.1740
     15 C         -4.342601   -0.623606   8.816011 C.3        1 UNL1     0.0520
     16 C         -4.27045   0.749786   8.162907 C.3        1 UNL1     0.1322
     17 O         -3.510451   0.694647   6.93554 O.3        1 UNL1     -0.4828
     18 C         -5.628507   1.444527   8.037442 C.ar        1 UNL1     -0.0067
     19 C         -6.004062   2.013226   6.803038 C.ar        1 UNL1     -0.0516
     20 C         -7.218132   2.696934   6.666874 C.ar        1 UNL1     -0.0198
     21 C         -8.060131   2.824893   7.757053 C.ar        1 UNL1     0.1169
     22 C         -7.733341   2.246934   8.976893 C.ar        1 UNL1     -0.0198
     23 C         -6.527824   1.547306   9.108451 C.ar        1 UNL1     -0.0516
     24 O         -9.216546   3.530106   7.596491 O.3        1 UNL1     -0.5068
     25 O         -5.7624   -2.450161   8.271588 O.2        1 UNL1     -0.2917
     26 O         -5.797918   -3.402202   5.749508 O.3        1 UNL1     -0.5058
     27 O         -0.229621   -0.195477   2.541455 O.3        1 UNL1     -0.3648
     28 O         0.265848   -1.952946   -0.571099 O.3        1 UNL1     -0.3841
     29 O         -2.459928   0.354901   -0.263142 O.3        1 UNL1     -0.3863
     30 O         -2.446629   -3.318939   -0.209899 O.3        1 UNL1     -0.3829
     31 H         0.6241   -1.846187   1.817366 H        1 UNL1     0.0937
     32 H         0.0   0.0   0.0 H        1 UNL1     0.0671
     33 H         -1.866523   -1.196549   -1.414061 H        1 UNL1     0.0649
     34 H         -3.84243   -1.838374   0.057689 H        1 UNL1     0.0683
     35 H         -3.199216   -2.943545   2.150325 H        1 UNL1     0.1085
     36 H         -4.825608   -2.966277   3.431774 H        1 UNL1     0.0691
     37 H         -2.783264   0.68657   4.488059 H        1 UNL1     0.0691
     38 H         -3.341093   -1.015725   9.022773 H        1 UNL1     0.0385
     39 H         -4.903877   -0.605896   9.756455 H        1 UNL1     0.0385
     40 H         -3.67536   1.392538   8.825672 H        1 UNL1     0.0789
     41 H         -5.356435   1.934432   5.934693 H        1 UNL1     0.0623
     42 H         -7.491005   3.141329   5.712901 H        1 UNL1     0.0654
     43 H         -8.39234   2.328174   9.833066 H        1 UNL1     0.0654
     44 H         -6.309413   1.099455   10.073111 H        1 UNL1     0.0623
     45 H         -8.988532   4.440698   7.348401 H        1 UNL1     0.2921
     46 H         -5.396376   -3.916243   6.467796 H        1 UNL1     0.2922
     47 H         0.512761   0.359222   2.263899 H        1 UNL1     0.2126
     48 H         1.201337   -1.8774   -0.301126 H        1 UNL1     0.2101
     49 H         -2.021568   0.937331   -0.903774 H        1 UNL1     0.2100
     50 H         -2.684127   -3.333441   -1.160213 H        1 UNL1     0.2102
@<TRIPOS>BOND
     1     1     2    1
     2     1     6    1
     3     2     3    1
     4     3     4    1
     5     3    29    1
     6     3    33    1
     7     4     5    1
     8     5     6    1
     9     5     7    1
    10     5    35    1
    11     7     8    1
    12     8     9   ar
    13     8    13   ar
    14     9    10   ar
    15     9    36    1
    16    10    11   ar
    17    10    26    1
    18    11    12   ar
    19    11    14    1
    20    12    13   ar
    21    12    17    1
    22    13    37    1
    23    14    15    1
    24    14    25    2
    25    15    16    1
    26    15    38    1
    27    15    39    1
    28    16    17    1
    29    16    18    1
    30    16    40    1
    31    18    19   ar
    32    18    23   ar
    33    19    20   ar
    34    19    41    1
    35    20    21   ar
    36    20    42    1
    37    21    22   ar
    38    21    24    1
    39    22    23   ar
    40    22    43    1
    41    23    44    1
    42    24    45    1
    43    26    46    1
    44    27    47    1
    45    28    48    1
    46    29    49    1
    47    30    50    1
    48     1    31    1
    49     1    27    1
    50     2    32    1
    51     2    28    1
    52     4    34    1
    53     4    30    1
