@<TRIPOS>MOLECULE
*****
 50 53 0 0 0
SMALL
GASTEIGER

@<TRIPOS>ATOM
     1 C         -0.217701   -1.188707   1.819447 C.3        1 UNL1     0.1889
     2 C         -0.524363   -0.907602   0.323827 C.3        1 UNL1     0.1342
     3 C         -2.017753   -0.769476   -0.009598 C.3        1 UNL1     0.1174
     4 C         -2.902214   -1.689012   0.836156 C.3        1 UNL1     0.1456
     5 C         -2.538651   -1.645785   2.331588 C.3        1 UNL1     0.2326
     6 O         -1.166347   -1.989898   2.508329 O.3        1 UNL1     -0.3076
     7 O         -2.899172   -0.409209   2.973637 O.3        1 UNL1     -0.4605
     8 C         -3.243444   -0.49813   4.310461 C.ar        1 UNL1     0.1310
     9 C         -4.101028   -1.454628   4.864502 C.ar        1 UNL1     0.0226
     10 C         -4.37498   -1.472418   6.237286 C.ar        1 UNL1     0.1343
     11 C         -3.77867   -0.54789   7.093734 C.ar        1 UNL1     0.1007
     12 C         -2.952737   0.437521   6.546392 C.ar        1 UNL1     0.1389
     13 C         -2.679522   0.456825   5.165663 C.ar        1 UNL1     0.0229
     14 C         -3.966842   -0.572975   8.562786 C.2        1 UNL1     0.1740
     15 C         -3.079606   0.348769   9.346845 C.3        1 UNL1     0.0520
     16 C         -2.968216   1.666935   8.593195 C.3        1 UNL1     0.1322
     17 O         -2.40019   1.460937   7.280952 O.3        1 UNL1     -0.4828
     18 C         -4.256218   2.493768   8.604241 C.ar        1 UNL1     -0.0067
     19 C         -4.747025   3.027363   7.394862 C.ar        1 UNL1     -0.0516
     20 C         -5.895804   3.827322   7.37653 C.ar        1 UNL1     -0.0198
     21 C         -6.557098   4.106449   8.559156 C.ar        1 UNL1     0.1169
     22 C         -6.117302   3.568009   9.761446 C.ar        1 UNL1     -0.0198
     23 C         -4.979153   2.752892   9.777532 C.ar        1 UNL1     -0.0516
     24 O         -7.65048   4.920225   8.507326 O.3        1 UNL1     -0.5068
     25 O         -4.733388   -1.344709   9.133154 O.2        1 UNL1     -0.2917
     26 O         -5.220942   -2.430786   6.714217 O.3        1 UNL1     -0.5058
     27 O         0.117583   -0.023732   2.556471 O.3        1 UNL1     -0.3648
     28 O         -0.009565   -1.999688   -0.460417 O.3        1 UNL1     -0.3841
     29 O         -2.426012   0.598727   0.049356 O.3        1 UNL1     -0.3863
     30 O         -2.762549   -3.046554   0.363647 O.3        1 UNL1     -0.3829
     31 H         0.694609   -1.794682   1.843193 H        1 UNL1     0.0937
     32 H         0.0   0.0   0.0 H        1 UNL1     0.0671
     33 H         -2.156663   -1.070517   -1.057357 H        1 UNL1     0.0649
     34 H         -3.955213   -1.413076   0.711843 H        1 UNL1     0.0683
     35 H         -3.130432   -2.458401   2.771281 H        1 UNL1     0.1085
     36 H         -4.551683   -2.234486   4.260471 H        1 UNL1     0.0691
     37 H         -2.034063   1.235101   4.764212 H        1 UNL1     0.0691
     38 H         -2.101764   -0.135086   9.442954 H        1 UNL1     0.0385
     39 H         -3.496488   0.480012   10.351217 H        1 UNL1     0.0385
     40 H         -2.224967   2.279757   9.120973 H        1 UNL1     0.0789
     41 H         -4.240738   2.830443   6.454359 H        1 UNL1     0.0623
     42 H         -6.257532   4.242707   6.439182 H        1 UNL1     0.0654
     43 H         -6.63629   3.767868   10.691294 H        1 UNL1     0.0654
     44 H         -4.669879   2.34048   10.733101 H        1 UNL1     0.0623
     45 H         -7.373287   5.784785   8.163211 H        1 UNL1     0.2921
     46 H         -4.772892   -2.942517   7.406167 H        1 UNL1     0.2922
     47 H         0.863129   0.432041   2.141391 H        1 UNL1     0.2126
     48 H         0.957747   -2.008656   -0.326405 H        1 UNL1     0.2101
     49 H         -2.02683   1.094101   -0.683483 H        1 UNL1     0.2100
     50 H         -3.128391   -3.088978   -0.544137 H        1 UNL1     0.2102
@<TRIPOS>BOND
     1     1     2    1
     2     1     6    1
     3     2     3    1
     4     3     4    1
     5     3    29    1
     6     3    33    1
     7     4     5    1
     8     5     6    1
     9     5     7    1
    10     5    35    1
    11     7     8    1
    12     8     9   ar
    13     8    13   ar
    14     9    10   ar
    15     9    36    1
    16    10    11   ar
    17    10    26    1
    18    11    12   ar
    19    11    14    1
    20    12    13   ar
    21    12    17    1
    22    13    37    1
    23    14    15    1
    24    14    25    2
    25    15    16    1
    26    15    38    1
    27    15    39    1
    28    16    17    1
    29    16    18    1
    30    16    40    1
    31    18    19   ar
    32    18    23   ar
    33    19    20   ar
    34    19    41    1
    35    20    21   ar
    36    20    42    1
    37    21    22   ar
    38    21    24    1
    39    22    23   ar
    40    22    43    1
    41    23    44    1
    42    24    45    1
    43    26    46    1
    44    27    47    1
    45    28    48    1
    46    29    49    1
    47    30    50    1
    48     1    31    1
    49     1    27    1
    50     2    32    1
    51     2    28    1
    52     4    34    1
    53     4    30    1
