@<TRIPOS>MOLECULE
*****
 50 53 0 0 0
SMALL
GASTEIGER

@<TRIPOS>ATOM
     1 C         -0.337415   -1.332542   1.697435 C.3        1 UNL1     0.1889
     2 C         -0.464849   -0.974962   0.192165 C.3        1 UNL1     0.1342
     3 C         -1.904845   -0.957766   -0.343165 C.3        1 UNL1     0.1174
     4 C         -2.794422   -2.017025   0.31238 C.3        1 UNL1     0.1456
     5 C         -2.645177   -2.047136   1.844432 C.3        1 UNL1     0.2326
     6 O         -1.281284   -2.269171   2.195665 O.3        1 UNL1     -0.3076
     7 O         -3.218617   -0.900748   2.498864 O.3        1 UNL1     -0.4605
     8 C         -3.730946   -1.118845   3.765151 C.ar        1 UNL1     0.1310
     9 C         -4.550295   -2.19112   4.134194 C.ar        1 UNL1     0.0226
     10 C         -5.005787   -2.334422   5.450209 C.ar        1 UNL1     0.1343
     11 C         -4.633096   -1.421026   6.435425 C.ar        1 UNL1     0.1007
     12 C         -3.848893   -0.323585   6.070144 C.ar        1 UNL1     0.1389
     13 C         -3.393201   -0.178277   4.746263 C.ar        1 UNL1     0.0229
     14 C         -5.016478   -1.570254   7.858416 C.2        1 UNL1     0.1740
     15 C         -4.347048   -0.626334   8.813626 C.3        1 UNL1     0.0520
     16 C         -4.27362   0.747438   8.161463 C.3        1 UNL1     0.1322
     17 O         -3.513103   0.692568   6.934405 O.3        1 UNL1     -0.4828
     18 C         -5.631123   1.443231   8.035842 C.ar        1 UNL1     -0.0067
     19 C         -5.999418   2.026051   6.805844 C.ar        1 UNL1     -0.0516
     20 C         -7.212869   2.710973   6.670266 C.ar        1 UNL1     -0.0198
     21 C         -8.061464   2.826118   7.756754 C.ar        1 UNL1     0.1169
     22 C         -7.741842   2.234194   8.971788 C.ar        1 UNL1     -0.0198
     23 C         -6.536912   1.533405   9.102524 C.ar        1 UNL1     -0.0516
     24 O         -9.217121   3.53284   7.597375 O.3        1 UNL1     -0.5068
     25 O         -5.767904   -2.451514   8.26735 O.2        1 UNL1     -0.2917
     26 O         -5.802956   -3.40186   5.744625 O.3        1 UNL1     -0.5058
     27 O         -0.230915   -0.196994   2.541221 O.3        1 UNL1     -0.3648
     28 O         0.264712   -1.952757   -0.572271 O.3        1 UNL1     -0.3841
     29 O         -2.459554   0.356832   -0.264023 O.3        1 UNL1     -0.3863
     30 O         -2.448903   -3.317051   -0.213205 O.3        1 UNL1     -0.3829
     31 H         0.621957   -1.847834   1.816427 H        1 UNL1     0.0937
     32 H         0.0   0.0   0.0 H        1 UNL1     0.0671
     33 H         -1.866735   -1.19428   -1.415699 H        1 UNL1     0.0649
     34 H         -3.843767   -1.835666   0.05473 H        1 UNL1     0.0683
     35 H         -3.202293   -2.94268   2.146925 H        1 UNL1     0.1085
     36 H         -4.829283   -2.965098   3.427621 H        1 UNL1     0.0691
     37 H         -2.784811   0.68559   4.487249 H        1 UNL1     0.0691
     38 H         -3.345915   -1.019306   9.020583 H        1 UNL1     0.0385
     39 H         -4.908738   -0.608845   9.753827 H        1 UNL1     0.0385
     40 H         -3.678372   1.389326   8.824924 H        1 UNL1     0.0789
     41 H         -5.346545   1.957456   5.940569 H        1 UNL1     0.0623
     42 H         -7.480133   3.166285   5.71986 H        1 UNL1     0.0654
     43 H         -8.406015   2.305372   9.824852 H        1 UNL1     0.0654
     44 H         -6.324171   1.0745   10.063249 H        1 UNL1     0.0623
     45 H         -8.987914   4.446295   7.361194 H        1 UNL1     0.2921
     46 H         -5.402108   -3.916664   6.462754 H        1 UNL1     0.2922
     47 H         0.511143   0.358067   2.263521 H        1 UNL1     0.2126
     48 H         1.200132   -1.878058   -0.301823 H        1 UNL1     0.2101
     49 H         -2.024309   0.937992   -0.907924 H        1 UNL1     0.2100
     50 H         -2.68598   -3.330755   -1.163636 H        1 UNL1     0.2102
@<TRIPOS>BOND
     1     1     2    1
     2     1     6    1
     3     2     3    1
     4     3     4    1
     5     3    29    1
     6     3    33    1
     7     4     5    1
     8     5     6    1
     9     5     7    1
    10     5    35    1
    11     7     8    1
    12     8     9   ar
    13     8    13   ar
    14     9    10   ar
    15     9    36    1
    16    10    11   ar
    17    10    26    1
    18    11    12   ar
    19    11    14    1
    20    12    13   ar
    21    12    17    1
    22    13    37    1
    23    14    15    1
    24    14    25    2
    25    15    16    1
    26    15    38    1
    27    15    39    1
    28    16    17    1
    29    16    18    1
    30    16    40    1
    31    18    19   ar
    32    18    23   ar
    33    19    20   ar
    34    19    41    1
    35    20    21   ar
    36    20    42    1
    37    21    22   ar
    38    21    24    1
    39    22    23   ar
    40    22    43    1
    41    23    44    1
    42    24    45    1
    43    26    46    1
    44    27    47    1
    45    28    48    1
    46    29    49    1
    47    30    50    1
    48     1    31    1
    49     1    27    1
    50     2    32    1
    51     2    28    1
    52     4    34    1
    53     4    30    1
