@<TRIPOS>MOLECULE
*****
 50 53 0 0 0
SMALL
GASTEIGER

@<TRIPOS>ATOM
     1 C         -0.326835   -1.366469   1.672347 C.3        1 UNL1     0.1889
     2 C         -0.462246   -0.979405   0.175088 C.3        1 UNL1     0.1342
     3 C         -1.904875   -0.954204   -0.352788 C.3        1 UNL1     0.1174
     4 C         -2.78943   -2.027821   0.285981 C.3        1 UNL1     0.1456
     5 C         -2.632632   -2.087971   1.816393 C.3        1 UNL1     0.2326
     6 O         -1.26666   -2.314465   2.156525 O.3        1 UNL1     -0.3076
     7 O         -3.204805   -0.955787   2.49617 O.3        1 UNL1     -0.4605
     8 C         -3.720757   -1.20221   3.755772 C.ar        1 UNL1     0.1310
     9 C         -4.543671   -2.280753   4.097616 C.ar        1 UNL1     0.0226
     10 C         -5.002721   -2.453713   5.408822 C.ar        1 UNL1     0.1343
     11 C         -4.630155   -1.564624   6.416073 C.ar        1 UNL1     0.1007
     12 C         -3.842332   -0.46092   6.078497 C.ar        1 UNL1     0.1389
     13 C         -3.383058   -0.285771   4.759474 C.ar        1 UNL1     0.0229
     14 C         -5.01737   -1.746201   7.834258 C.2        1 UNL1     0.1740
     15 C         -4.347918   -0.826648   8.812932 C.3        1 UNL1     0.0520
     16 C         -4.269479   0.561848   8.193347 C.3        1 UNL1     0.1322
     17 O         -3.506116   0.533828   6.967149 O.3        1 UNL1     -0.4828
     18 C         -5.624934   1.263852   8.080856 C.ar        1 UNL1     -0.0067
     19 C         -5.699032   2.533007   7.470964 C.ar        1 UNL1     -0.0516
     20 C         -6.914649   3.223181   7.394161 C.ar        1 UNL1     -0.0198
     21 C         -8.059274   2.659454   7.928833 C.ar        1 UNL1     0.1169
     22 C         -8.024618   1.396651   8.505866 C.ar        1 UNL1     -0.0198
     23 C         -6.812724   0.698288   8.566333 C.ar        1 UNL1     -0.0516
     24 O         -9.217374   3.37754   7.869195 O.3        1 UNL1     -0.5068
     25 O         -5.771983   -2.634889   8.220623 O.2        1 UNL1     -0.2917
     26 O         -5.803262   -3.525727   5.676226 O.3        1 UNL1     -0.5058
     27 O         -0.21813   -0.247649   2.537917 O.3        1 UNL1     -0.3648
     28 O         0.265221   -1.940574   -0.612092 O.3        1 UNL1     -0.3841
     29 O         -2.46142   0.357573   -0.244943 O.3        1 UNL1     -0.3863
     30 O         -2.444283   -3.316571   -0.266908 O.3        1 UNL1     -0.3829
     31 H         0.633982   -1.882292   1.776448 H        1 UNL1     0.0937
     32 H         0.0   0.0   0.0 H        1 UNL1     0.0671
     33 H         -1.871617   -1.169383   -1.429966 H        1 UNL1     0.0649
     34 H         -3.840331   -1.843283   0.037077 H        1 UNL1     0.0683
     35 H         -3.186739   -2.990323   2.103806 H        1 UNL1     0.1085
     36 H         -4.822866   -3.037235   3.372423 H        1 UNL1     0.0691
     37 H         -2.771888   0.582379   4.52224 H        1 UNL1     0.0691
     38 H         -3.348273   -1.226914   9.012992 H        1 UNL1     0.0385
     39 H         -4.911849   -0.829779   9.751948 H        1 UNL1     0.0385
     40 H         -3.67425   1.186482   8.873093 H        1 UNL1     0.0789
     41 H         -4.813006   3.000984   7.051912 H        1 UNL1     0.0623
     42 H         -6.956564   4.206371   6.932001 H        1 UNL1     0.0654
     43 H         -8.917975   0.9394   8.914209 H        1 UNL1     0.0654
     44 H         -6.824371   -0.290514   9.014642 H        1 UNL1     0.0623
     45 H         -9.098927   4.19367   8.381659 H        1 UNL1     0.2921
     46 H         -5.405447   -4.058248   6.383033 H        1 UNL1     0.2922
     47 H         0.511263   0.322766   2.257788 H        1 UNL1     0.2126
     48 H         1.210188   -1.820733   -0.396667 H        1 UNL1     0.2101
     49 H         -2.030562   0.952057   -0.879564 H        1 UNL1     0.2100
     50 H         -2.706729   -3.319814   -1.210743 H        1 UNL1     0.2102
@<TRIPOS>BOND
     1     1     2    1
     2     1     6    1
     3     2     3    1
     4     3     4    1
     5     3    29    1
     6     3    33    1
     7     4     5    1
     8     5     6    1
     9     5     7    1
    10     5    35    1
    11     7     8    1
    12     8     9   ar
    13     8    13   ar
    14     9    10   ar
    15     9    36    1
    16    10    11   ar
    17    10    26    1
    18    11    12   ar
    19    11    14    1
    20    12    13   ar
    21    12    17    1
    22    13    37    1
    23    14    15    1
    24    14    25    2
    25    15    16    1
    26    15    38    1
    27    15    39    1
    28    16    17    1
    29    16    18    1
    30    16    40    1
    31    18    19   ar
    32    18    23   ar
    33    19    20   ar
    34    19    41    1
    35    20    21   ar
    36    20    42    1
    37    21    22   ar
    38    21    24    1
    39    22    23   ar
    40    22    43    1
    41    23    44    1
    42    24    45    1
    43    26    46    1
    44    27    47    1
    45    28    48    1
    46    29    49    1
    47    30    50    1
    48     1    31    1
    49     1    27    1
    50     2    32    1
    51     2    28    1
    52     4    34    1
    53     4    30    1
