@<TRIPOS>MOLECULE
*****
 50 53 0 0 0
SMALL
GASTEIGER

@<TRIPOS>ATOM
     1 C         -0.297915   -1.366283   1.677892 C.3        1 UNL1     0.1889
     2 C         -0.456062   -0.980966   0.182412 C.3        1 UNL1     0.1342
     3 C         -1.906142   -0.961551   -0.324892 C.3        1 UNL1     0.1174
     4 C         -2.777518   -2.037909   0.327239 C.3        1 UNL1     0.1456
     5 C         -2.59873   -2.096208   1.855309 C.3        1 UNL1     0.2326
     6 O         -1.227223   -2.317354   2.176136 O.3        1 UNL1     -0.3076
     7 O         -3.165376   -0.965588   2.542283 O.3        1 UNL1     -0.4605
     8 C         -3.652169   -1.210439   3.813742 C.ar        1 UNL1     0.1310
     9 C         -4.458766   -2.293999   4.177886 C.ar        1 UNL1     0.0226
     10 C         -4.888163   -2.464698   5.499393 C.ar        1 UNL1     0.1343
     11 C         -4.501317   -1.568089   6.494523 C.ar        1 UNL1     0.1007
     12 C         -3.729916   -0.459633   6.135291 C.ar        1 UNL1     0.1389
     13 C         -3.30048   -0.286778   4.805954 C.ar        1 UNL1     0.0229
     14 C         -4.856534   -1.746344   7.921478 C.2        1 UNL1     0.1740
     15 C         -4.17374   -0.817017   8.881526 C.3        1 UNL1     0.0520
     16 C         -4.119901   0.569242   8.254354 C.3        1 UNL1     0.1322
     17 O         -3.382813   0.541801   7.012171 O.3        1 UNL1     -0.4828
     18 C         -5.483119   1.259817   8.167955 C.ar        1 UNL1     -0.0067
     19 C         -5.884256   1.850804   6.952209 C.ar        1 UNL1     -0.0516
     20 C         -7.103667   2.531245   6.852211 C.ar        1 UNL1     -0.0198
     21 C         -7.925632   2.63379   7.960221 C.ar        1 UNL1     0.1169
     22 C         -7.573483   2.033598   9.162136 C.ar        1 UNL1     -0.0198
     23 C         -6.36264   1.337289   9.257375 C.ar        1 UNL1     -0.0516
     24 O         -9.08795   3.336486   7.835181 O.3        1 UNL1     -0.5068
     25 O         -5.595435   -2.639306   8.327837 O.2        1 UNL1     -0.2917
     26 O         -5.674043   -3.541887   5.788605 O.3        1 UNL1     -0.5058
     27 O         -0.181063   -0.24635   2.540957 O.3        1 UNL1     -0.3648
     28 O         0.263695   -1.940085   -0.614298 O.3        1 UNL1     -0.3841
     29 O         -2.46597   0.348243   -0.210155 O.3        1 UNL1     -0.3863
     30 O         -2.435486   -3.325829   -0.229507 O.3        1 UNL1     -0.3829
     31 H         0.666197   -1.878454   1.768705 H        1 UNL1     0.0937
     32 H         0.0   0.0   0.0 H        1 UNL1     0.0671
     33 H         -1.887419   -1.177499   -1.402267 H        1 UNL1     0.0649
     34 H         -3.832534   -1.857475   0.093178 H        1 UNL1     0.0683
     35 H         -3.145331   -3.000369   2.151282 H        1 UNL1     0.1085
     36 H         -4.747293   -3.055978   3.462162 H        1 UNL1     0.0691
     37 H         -2.701618   0.585171   4.551862 H        1 UNL1     0.0691
     38 H         -3.166813   -1.208328   9.061803 H        1 UNL1     0.0385
     39 H         -4.717355   -0.820424   9.832446 H        1 UNL1     0.0385
     40 H         -3.515326   1.201713   8.918425 H        1 UNL1     0.0789
     41 H         -5.252685   1.792139   6.070548 H        1 UNL1     0.0623
     42 H         -7.396335   2.992947   5.91243 H        1 UNL1     0.0654
     43 H         -8.216663   2.094893   10.03189 H        1 UNL1     0.0654
     44 H         -6.124208   0.871663   10.208788 H        1 UNL1     0.0623
     45 H         -8.868758   4.252166   7.598113 H        1 UNL1     0.2921
     46 H         -5.256841   -4.067986   6.489015 H        1 UNL1     0.2922
     47 H         0.553533   0.317221   2.26057 H        1 UNL1     0.2126
     48 H         1.20374   -1.86538   -0.360394 H        1 UNL1     0.2101
     49 H         -2.040334   0.945865   -0.845352 H        1 UNL1     0.2100
     50 H         -2.690696   -3.322835   -1.175325 H        1 UNL1     0.2102
@<TRIPOS>BOND
     1     1     2    1
     2     1     6    1
     3     2     3    1
     4     3     4    1
     5     3    29    1
     6     3    33    1
     7     4     5    1
     8     5     6    1
     9     5     7    1
    10     5    35    1
    11     7     8    1
    12     8     9   ar
    13     8    13   ar
    14     9    10   ar
    15     9    36    1
    16    10    11   ar
    17    10    26    1
    18    11    12   ar
    19    11    14    1
    20    12    13   ar
    21    12    17    1
    22    13    37    1
    23    14    15    1
    24    14    25    2
    25    15    16    1
    26    15    38    1
    27    15    39    1
    28    16    17    1
    29    16    18    1
    30    16    40    1
    31    18    19   ar
    32    18    23   ar
    33    19    20   ar
    34    19    41    1
    35    20    21   ar
    36    20    42    1
    37    21    22   ar
    38    21    24    1
    39    22    23   ar
    40    22    43    1
    41    23    44    1
    42    24    45    1
    43    26    46    1
    44    27    47    1
    45    28    48    1
    46    29    49    1
    47    30    50    1
    48     1    31    1
    49     1    27    1
    50     2    32    1
    51     2    28    1
    52     4    34    1
    53     4    30    1
