@<TRIPOS>MOLECULE
*****
 50 53 0 0 0
SMALL
GASTEIGER

@<TRIPOS>ATOM
     1 C         0.9935   1.821913   0.681465 C.3        1 UNL1     0.1889
     2 C         0.923754   0.553163   -0.210358 C.3        1 UNL1     0.1342
     3 C         2.121412   -0.398363   -0.066555 C.3        1 UNL1     0.1174
     4 C         3.438803   0.339492   0.18478 C.3        1 UNL1     0.1456
     5 C         3.308823   1.427659   1.266151 C.3        1 UNL1     0.2326
     6 O         2.29056   2.356504   0.90111 O.3        1 UNL1     -0.3076
     7 O         3.142676   0.898913   2.594362 O.3        1 UNL1     -0.4605
     8 C         3.699961   1.644382   3.617708 C.ar        1 UNL1     0.1310
     9 C         3.00344   2.162945   4.714636 C.ar        1 UNL1     0.0226
     10 C         3.662366   2.893108   5.71092 C.ar        1 UNL1     0.1343
     11 C         5.039297   3.102297   5.646553 C.ar        1 UNL1     0.1007
     12 C         5.738816   2.624531   4.53516 C.ar        1 UNL1     0.1389
     13 C         5.075594   1.892657   3.532201 C.ar        1 UNL1     0.0229
     14 C         5.799476   3.794056   6.713207 C.2        1 UNL1     0.1740
     15 C         7.293635   3.733861   6.589044 C.3        1 UNL1     0.0520
     16 C         7.662745   3.910803   5.122617 C.3        1 UNL1     0.1322
     17 O         7.075261   2.865932   4.316281 O.3        1 UNL1     -0.4828
     18 C         7.427003   5.327946   4.59455 C.ar        1 UNL1     -0.0067
     19 C         7.205562   5.525436   3.216082 C.ar        1 UNL1     -0.0516
     20 C         7.033736   6.812753   2.693347 C.ar        1 UNL1     -0.0198
     21 C         7.088409   7.90882   3.535652 C.ar        1 UNL1     0.1169
     22 C         7.271559   7.744096   4.902458 C.ar        1 UNL1     -0.0198
     23 C         7.424999   6.455599   5.42809 C.ar        1 UNL1     -0.0516
     24 O         6.954524   9.149548   2.985135 O.3        1 UNL1     -0.5068
     25 O         5.269754   4.3202   7.688426 O.2        1 UNL1     -0.2917
     26 O         2.925084   3.372585   6.754041 O.3        1 UNL1     -0.5058
     27 O         0.264269   1.702449   1.892554 O.3        1 UNL1     -0.3648
     28 O         0.868201   0.96668   -1.588264 O.3        1 UNL1     -0.3841
     29 O         1.85499   -1.404404   0.912747 O.3        1 UNL1     -0.3863
     30 O         3.877905   0.957068   -1.044643 O.3        1 UNL1     -0.3829
     31 H         0.477786   2.618129   0.133597 H        1 UNL1     0.0937
     32 H         0.0   -0.0   0.0 H        1 UNL1     0.0671
     33 H         2.236153   -0.938961   -1.016454 H        1 UNL1     0.0649
     34 H         4.21622   -0.373521   0.480812 H        1 UNL1     0.0683
     35 H         4.263882   1.965489   1.216346 H        1 UNL1     0.1085
     36 H         1.942034   1.987088   4.851064 H        1 UNL1     0.0691
     37 H         5.642711   1.532475   2.676548 H        1 UNL1     0.0691
     38 H         7.617923   2.756799   6.962828 H        1 UNL1     0.0385
     39 H         7.738051   4.507746   7.224161 H        1 UNL1     0.0385
     40 H         8.745517   3.745983   5.039195 H        1 UNL1     0.0789
     41 H         7.167458   4.682088   2.532734 H        1 UNL1     0.0623
     42 H         6.875536   6.952856   1.626879 H        1 UNL1     0.0654
     43 H         7.301003   8.594479   5.573198 H        1 UNL1     0.0654
     44 H         7.555657   6.363231   6.501981 H        1 UNL1     0.0623
     45 H         7.73642   9.328289   2.437955 H        1 UNL1     0.2921
     46 H         2.651055   2.635458   7.32234 H        1 UNL1     0.2922
     47 H         0.18632   2.565319   2.32295 H        1 UNL1     0.2126
     48 H         1.76545   0.843486   -1.95364 H        1 UNL1     0.2101
     49 H         2.313559   -1.188917   1.740439 H        1 UNL1     0.2100
     50 H         4.798085   1.266976   -0.914491 H        1 UNL1     0.2102
@<TRIPOS>BOND
     1     1     2    1
     2     1     6    1
     3     2     3    1
     4     3     4    1
     5     3    29    1
     6     3    33    1
     7     4     5    1
     8     5     6    1
     9     5     7    1
    10     5    35    1
    11     7     8    1
    12     8     9   ar
    13     8    13   ar
    14     9    10   ar
    15     9    36    1
    16    10    11   ar
    17    10    26    1
    18    11    12   ar
    19    11    14    1
    20    12    13   ar
    21    12    17    1
    22    13    37    1
    23    14    15    1
    24    14    25    2
    25    15    16    1
    26    15    38    1
    27    15    39    1
    28    16    17    1
    29    16    18    1
    30    16    40    1
    31    18    19   ar
    32    18    23   ar
    33    19    20   ar
    34    19    41    1
    35    20    21   ar
    36    20    42    1
    37    21    22   ar
    38    21    24    1
    39    22    23   ar
    40    22    43    1
    41    23    44    1
    42    24    45    1
    43    26    46    1
    44    27    47    1
    45    28    48    1
    46    29    49    1
    47    30    50    1
    48     1    31    1
    49     1    27    1
    50     2    32    1
    51     2    28    1
    52     4    34    1
    53     4    30    1
