@<TRIPOS>MOLECULE
*****
 50 53 0 0 0
SMALL
GASTEIGER

@<TRIPOS>ATOM
     1 C         0.246055   -1.760705   1.268929 C.3        1 UNL1     0.1889
     2 C         -0.331641   -1.045587   0.018003 C.3        1 UNL1     0.1342
     3 C         -1.863334   -1.087472   -0.09437 C.3        1 UNL1     0.1174
     4 C         -2.461975   -2.392121   0.437266 C.3        1 UNL1     0.1456
     5 C         -1.874845   -2.798158   1.801368 C.3        1 UNL1     0.2326
     6 O         -0.4571   -2.914726   1.705052 O.3        1 UNL1     -0.3076
     7 O         -2.300692   -1.950711   2.88387 O.3        1 UNL1     -0.4605
     8 C         -2.411538   -2.558103   4.121738 C.ar        1 UNL1     0.1310
     9 C         -3.025112   -3.791202   4.367292 C.ar        1 UNL1     0.0226
     10 C         -3.07165   -4.332215   5.657657 C.ar        1 UNL1     0.1343
     11 C         -2.484209   -3.66374   6.730921 C.ar        1 UNL1     0.1007
     12 C         -1.904603   -2.412376   6.505249 C.ar        1 UNL1     0.1389
     13 C         -1.860265   -1.867376   5.20816 C.ar        1 UNL1     0.0229
     14 C         -2.43058   -4.228309   8.099329 C.2        1 UNL1     0.1740
     15 C         -1.57005   -3.48221   9.076248 C.3        1 UNL1     0.0520
     16 C         -1.768685   -1.989597   8.851284 C.3        1 UNL1     0.1322
     17 O         -1.393387   -1.619328   7.506248 O.3        1 UNL1     -0.4828
     18 C         -3.142824   -1.477828   9.290097 C.ar        1 UNL1     -0.0067
     19 C         -3.890755   -0.664082   8.414522 C.ar        1 UNL1     -0.0516
     20 C         -5.129736   -0.140463   8.802736 C.ar        1 UNL1     -0.0198
     21 C         -5.627189   -0.416586   10.063737 C.ar        1 UNL1     0.1169
     22 C         -4.929534   -1.242035   10.935947 C.ar        1 UNL1     -0.0198
     23 C         -3.699139   -1.780838   10.541134 C.ar        1 UNL1     -0.0516
     24 O         -6.819349   0.141793   10.420625 O.3        1 UNL1     -0.5068
     25 O         -2.978891   -5.279854   8.418851 O.2        1 UNL1     -0.2917
     26 O         -3.68588   -5.538278   5.830046 O.3        1 UNL1     -0.5058
     27 O         0.525277   -0.879619   2.345269 O.3        1 UNL1     -0.3648
     28 O         0.201738   -1.681922   -1.158131 O.3        1 UNL1     -0.3841
     29 O         -2.447375   0.072678   0.501516 O.3        1 UNL1     -0.3863
     30 O         -2.207697   -3.451111   -0.511193 O.3        1 UNL1     -0.3829
     31 H         1.227293   -2.152748   0.979874 H        1 UNL1     0.0937
     32 H         0.0   0.0   0.0 H        1 UNL1     0.0671
     33 H         -2.123048   -1.029932   -1.160652 H        1 UNL1     0.0649
     34 H         -3.549734   -2.295634   0.525989 H        1 UNL1     0.0683
     35 H         -2.267411   -3.809106   1.967968 H        1 UNL1     0.1085
     36 H         -3.45064   -4.385893   3.566425 H        1 UNL1     0.0691
     37 H         -1.404287   -0.890971   5.059126 H        1 UNL1     0.0691
     38 H         -0.530637   -3.774434   8.892531 H        1 UNL1     0.0385
     39 H         -1.836075   -3.786509   10.094291 H        1 UNL1     0.0385
     40 H         -1.045693   -1.466656   9.491858 H        1 UNL1     0.0789
     41 H         -3.517876   -0.425177   7.422788 H        1 UNL1     0.0623
     42 H         -5.691439   0.495459   8.122954 H        1 UNL1     0.0654
     43 H         -5.316934   -1.476983   11.920137 H        1 UNL1     0.0654
     44 H         -3.186202   -2.430262   11.243977 H        1 UNL1     0.0623
     45 H         -6.726289   1.10784   10.392153 H        1 UNL1     0.2921
     46 H         -3.065213   -6.161903   6.239041 H        1 UNL1     0.2922
     47 H         1.122731   -0.176036   2.055649 H        1 UNL1     0.2126
     48 H         1.169362   -1.55256   -1.131666 H        1 UNL1     0.2101
     49 H         -2.244524   0.856275   -0.033854 H        1 UNL1     0.2100
     50 H         -2.708105   -3.249973   -1.329024 H        1 UNL1     0.2102
@<TRIPOS>BOND
     1     1     2    1
     2     1     6    1
     3     2     3    1
     4     3     4    1
     5     3    29    1
     6     3    33    1
     7     4     5    1
     8     5     6    1
     9     5     7    1
    10     5    35    1
    11     7     8    1
    12     8     9   ar
    13     8    13   ar
    14     9    10   ar
    15     9    36    1
    16    10    11   ar
    17    10    26    1
    18    11    12   ar
    19    11    14    1
    20    12    13   ar
    21    12    17    1
    22    13    37    1
    23    14    15    1
    24    14    25    2
    25    15    16    1
    26    15    38    1
    27    15    39    1
    28    16    17    1
    29    16    18    1
    30    16    40    1
    31    18    19   ar
    32    18    23   ar
    33    19    20   ar
    34    19    41    1
    35    20    21   ar
    36    20    42    1
    37    21    22   ar
    38    21    24    1
    39    22    23   ar
    40    22    43    1
    41    23    44    1
    42    24    45    1
    43    26    46    1
    44    27    47    1
    45    28    48    1
    46    29    49    1
    47    30    50    1
    48     1    31    1
    49     1    27    1
    50     2    32    1
    51     2    28    1
    52     4    34    1
    53     4    30    1
