@<TRIPOS>MOLECULE
*****
 50 53 0 0 0
SMALL
GASTEIGER

@<TRIPOS>ATOM
     1 C         -0.334911   -1.332691   1.697815 C.3        1 UNL1     0.1889
     2 C         -0.46441   -0.975058   0.192733 C.3        1 UNL1     0.1342
     3 C         -1.90512   -0.958106   -0.340684 C.3        1 UNL1     0.1174
     4 C         -2.793626   -2.017565   0.315989 C.3        1 UNL1     0.1456
     5 C         -2.642342   -2.047725   1.84784 C.3        1 UNL1     0.2326
     6 O         -1.277942   -2.269522   2.19725 O.3        1 UNL1     -0.3076
     7 O         -3.215127   -0.901477   2.503091 O.3        1 UNL1     -0.4605
     8 C         -3.725734   -1.119733   3.770045 C.ar        1 UNL1     0.1310
     9 C         -4.54439   -2.192181   4.140122 C.ar        1 UNL1     0.0226
     10 C         -4.998108   -2.335634   5.456733 C.ar        1 UNL1     0.1343
     11 C         -4.624281   -1.422217   6.441499 C.ar        1 UNL1     0.1007
     12 C         -3.840769   -0.32461   6.075233 C.ar        1 UNL1     0.1389
     13 C         -3.386862   -0.179151   4.750755 C.ar        1 UNL1     0.0229
     14 C         -5.005745   -1.571589   7.86499 C.2        1 UNL1     0.1740
     15 C         -4.335224   -0.627591   8.819359 C.3        1 UNL1     0.0520
     16 C         -4.26292   0.746228   8.167168 C.3        1 UNL1     0.1322
     17 O         -3.504022   0.691561   6.939098 O.3        1 UNL1     -0.4828
     18 C         -5.620719   1.441773   8.043385 C.ar        1 UNL1     -0.0067
     19 C         -5.997052   2.011548   6.809714 C.ar        1 UNL1     -0.0516
     20 C         -7.210879   2.695992   6.675098 C.ar        1 UNL1     -0.0198
     21 C         -8.051858   2.823619   7.766103 C.ar        1 UNL1     0.1169
     22 C         -7.724307   2.24462   8.985246 C.ar        1 UNL1     -0.0198
     23 C         -6.519045   1.544264   9.115252 C.ar        1 UNL1     -0.0516
     24 O         -9.208041   3.529556   7.607054 O.3        1 UNL1     -0.5068
     25 O         -5.756461   -2.453009   8.274878 O.2        1 UNL1     -0.2917
     26 O         -5.794686   -3.403237   5.752154 O.3        1 UNL1     -0.5058
     27 O         -0.227503   -0.197165   2.541516 O.3        1 UNL1     -0.3648
     28 O         0.264318   -1.952679   -0.57272 O.3        1 UNL1     -0.3841
     29 O         -2.45997   0.356384   -0.260739 O.3        1 UNL1     -0.3863
     30 O         -2.448562   -3.317499   -0.21012 O.3        1 UNL1     -0.3829
     31 H         0.624714   -1.847808   1.815506 H        1 UNL1     0.0937
     32 H         0.0   0.0   0.0 H        1 UNL1     0.0671
     33 H         -1.868389   -1.194559   -1.413279 H        1 UNL1     0.0649
     34 H         -3.843347   -1.83639   0.059741 H        1 UNL1     0.0683
     35 H         -3.198888   -2.943389   2.151027 H        1 UNL1     0.1085
     36 H         -4.824171   -2.966175   3.433881 H        1 UNL1     0.0691
     37 H         -2.778978   0.684843   4.490977 H        1 UNL1     0.0691
     38 H         -3.333743   -1.020385   9.024966 H        1 UNL1     0.0385
     39 H         -4.895668   -0.610254   9.760305 H        1 UNL1     0.0385
     40 H         -3.666911   1.388194   8.82987 H        1 UNL1     0.0789
     41 H         -5.350226   1.933031   5.940748 H        1 UNL1     0.0623
     42 H         -7.484351   3.14121   5.72168 H        1 UNL1     0.0654
     43 H         -8.382515   2.325598   9.842052 H        1 UNL1     0.0654
     44 H         -6.300027   1.095611   10.079403 H        1 UNL1     0.0623
     45 H         -8.979833   4.439474   7.356682 H        1 UNL1     0.2921
     46 H         -5.392787   -3.918001   6.469724 H        1 UNL1     0.2922
     47 H         0.514929   0.35734   2.263705 H        1 UNL1     0.2126
     48 H         1.200083   -1.877818   -0.303511 H        1 UNL1     0.2101
     49 H         -2.019957   0.939726   -0.899406 H        1 UNL1     0.2100
     50 H         -2.686898   -3.3312   -1.160236 H        1 UNL1     0.2102
@<TRIPOS>BOND
     1     1     2    1
     2     1     6    1
     3     2     3    1
     4     3     4    1
     5     3    29    1
     6     3    33    1
     7     4     5    1
     8     5     6    1
     9     5     7    1
    10     5    35    1
    11     7     8    1
    12     8     9   ar
    13     8    13   ar
    14     9    10   ar
    15     9    36    1
    16    10    11   ar
    17    10    26    1
    18    11    12   ar
    19    11    14    1
    20    12    13   ar
    21    12    17    1
    22    13    37    1
    23    14    15    1
    24    14    25    2
    25    15    16    1
    26    15    38    1
    27    15    39    1
    28    16    17    1
    29    16    18    1
    30    16    40    1
    31    18    19   ar
    32    18    23   ar
    33    19    20   ar
    34    19    41    1
    35    20    21   ar
    36    20    42    1
    37    21    22   ar
    38    21    24    1
    39    22    23   ar
    40    22    43    1
    41    23    44    1
    42    24    45    1
    43    26    46    1
    44    27    47    1
    45    28    48    1
    46    29    49    1
    47    30    50    1
    48     1    31    1
    49     1    27    1
    50     2    32    1
    51     2    28    1
    52     4    34    1
    53     4    30    1
