@<TRIPOS>MOLECULE
*****
 50 53 0 0 0
SMALL
GASTEIGER

@<TRIPOS>ATOM
     1 C         -0.508771   -1.191782   1.758298 C.3        1 UNL1     0.1889
     2 C         -0.506702   -0.946581   0.225389 C.3        1 UNL1     0.1342
     3 C         -1.898909   -0.936806   -0.424326 C.3        1 UNL1     0.1174
     4 C         -2.867814   -1.92246   0.23357 C.3        1 UNL1     0.1456
     5 C         -2.840738   -1.839694   1.770703 C.3        1 UNL1     0.2326
     6 O         -1.51581   -2.065872   2.246389 O.3        1 UNL1     -0.3076
     7 O         -3.430404   -0.634029   2.290307 O.3        1 UNL1     -0.4605
     8 C         -4.047079   -0.743545   3.523695 C.ar        1 UNL1     0.1310
     9 C         -4.923799   -1.765531   3.903441 C.ar        1 UNL1     0.0226
     10 C         -5.485584   -1.798027   5.185332 C.ar        1 UNL1     0.1343
     11 C         -5.165313   -0.821369   6.127355 C.ar        1 UNL1     0.1007
     12 C         -4.323178   0.2268   5.746653 C.ar        1 UNL1     0.1389
     13 C         -3.760516   0.260694   4.45681 C.ar        1 UNL1     0.0229
     14 C         -5.663847   -0.853322   7.521843 C.2        1 UNL1     0.1740
     15 C         -5.044633   0.144637   8.45576 C.3        1 UNL1     0.0520
     16 C         -4.880112   1.462911   7.712092 C.3        1 UNL1     0.1322
     17 O         -4.027155   1.297566   6.557885 O.3        1 UNL1     -0.4828
     18 C         -6.202682   2.178324   7.426228 C.ar        1 UNL1     -0.0067
     19 C         -6.46209   2.66133   6.127142 C.ar        1 UNL1     -0.0516
     20 C         -7.64067   3.361518   5.843153 C.ar        1 UNL1     -0.0198
     21 C         -8.562288   3.591087   6.849009 C.ar        1 UNL1     0.1169
     22 C         -8.350589   3.098913   8.130331 C.ar        1 UNL1     -0.0198
     23 C         -7.18064   2.382712   8.410209 C.ar        1 UNL1     -0.0516
     24 O         -9.680846   4.309508   6.543884 O.3        1 UNL1     -0.5068
     25 O         -6.470475   -1.683435   7.932635 O.2        1 UNL1     -0.2917
     26 O         -6.334181   -2.821364   5.492334 O.3        1 UNL1     -0.5058
     27 O         -0.436141   0.001745   2.521847 O.3        1 UNL1     -0.3648
     28 O         0.252106   -1.996134   -0.403385 O.3        1 UNL1     -0.3841
     29 O         -2.41967   0.392462   -0.487456 O.3        1 UNL1     -0.3863
     30 O         -2.519888   -3.266242   -0.165038 O.3        1 UNL1     -0.3829
     31 H         0.422846   -1.718572   1.992093 H        1 UNL1     0.0937
     32 H         0.0   0.0   0.0 H        1 UNL1     0.0671
     33 H         -1.783267   -1.254822   -1.469894 H        1 UNL1     0.0649
     34 H         -3.887866   -1.736992   -0.120685 H        1 UNL1     0.0683
     35 H         -3.445769   -2.696608   2.092444 H        1 UNL1     0.1085
     36 H         -5.16861   -2.584233   3.235672 H        1 UNL1     0.0691
     37 H         -3.108741   1.088145   4.184767 H        1 UNL1     0.0691
     38 H         -4.07478   -0.25451   8.771342 H        1 UNL1     0.0385
     39 H         -5.677941   0.246366   9.343651 H        1 UNL1     0.0385
     40 H         -4.320603   2.139368   8.372301 H        1 UNL1     0.0789
     41 H         -5.750276   2.502079   5.3224 H        1 UNL1     0.0623
     42 H         -7.8237   3.739261   4.840246 H        1 UNL1     0.0654
     43 H         -9.072697   3.259958   8.921871 H        1 UNL1     0.0654
     44 H         -7.052826   2.003622   9.419565 H        1 UNL1     0.0623
     45 H         -9.406772   5.192251   6.246621 H        1 UNL1     0.2921
     46 H         -6.006326   -3.28932   6.276515 H        1 UNL1     0.2922
     47 H         0.341323   0.516859   2.26481 H        1 UNL1     0.2126
     48 H         1.165072   -1.922749   -0.064505 H        1 UNL1     0.2101
     49 H         -1.913002   0.915262   -1.129142 H        1 UNL1     0.2100
     50 H         -2.681607   -3.346532   -1.127905 H        1 UNL1     0.2102
@<TRIPOS>BOND
     1     1     2    1
     2     1     6    1
     3     2     3    1
     4     3     4    1
     5     3    29    1
     6     3    33    1
     7     4     5    1
     8     5     6    1
     9     5     7    1
    10     5    35    1
    11     7     8    1
    12     8     9   ar
    13     8    13   ar
    14     9    10   ar
    15     9    36    1
    16    10    11   ar
    17    10    26    1
    18    11    12   ar
    19    11    14    1
    20    12    13   ar
    21    12    17    1
    22    13    37    1
    23    14    15    1
    24    14    25    2
    25    15    16    1
    26    15    38    1
    27    15    39    1
    28    16    17    1
    29    16    18    1
    30    16    40    1
    31    18    19   ar
    32    18    23   ar
    33    19    20   ar
    34    19    41    1
    35    20    21   ar
    36    20    42    1
    37    21    22   ar
    38    21    24    1
    39    22    23   ar
    40    22    43    1
    41    23    44    1
    42    24    45    1
    43    26    46    1
    44    27    47    1
    45    28    48    1
    46    29    49    1
    47    30    50    1
    48     1    31    1
    49     1    27    1
    50     2    32    1
    51     2    28    1
    52     4    34    1
    53     4    30    1
