@<TRIPOS>MOLECULE
*****
 50 53 0 0 0
SMALL
GASTEIGER

@<TRIPOS>ATOM
     1 C         -0.58042   -1.416821   1.557734 C.3        1 UNL1     0.1889
     2 C         -0.583845   -0.92488   0.085347 C.3        1 UNL1     0.1342
     3 C         -1.981049   -0.692181   -0.509748 C.3        1 UNL1     0.1174
     4 C         -3.021046   -1.687583   0.01054 C.3        1 UNL1     0.1456
     5 C         -2.959707   -1.860291   1.539191 C.3        1 UNL1     0.2326
     6 O         -1.651591   -2.271553   1.929784 O.3        1 UNL1     -0.3076
     7 O         -3.431924   -0.710912   2.265318 O.3        1 UNL1     -0.4605
     8 C         -4.044131   -0.969771   3.478464 C.ar        1 UNL1     0.1310
     9 C         -5.006719   -1.959292   3.705561 C.ar        1 UNL1     0.0226
     10 C         -5.556774   -2.155458   4.977905 C.ar        1 UNL1     0.1343
     11 C         -5.139716   -1.381829   6.060218 C.ar        1 UNL1     0.1007
     12 C         -4.209189   -0.36338   5.83736 C.ar        1 UNL1     0.1389
     13 C         -3.658209   -0.164593   4.557385 C.ar        1 UNL1     0.0229
     14 C         -5.625656   -1.601835   7.442106 C.2        1 UNL1     0.1740
     15 C         -4.90905   -0.832343   8.512576 C.3        1 UNL1     0.0520
     16 C         -4.632134   0.571772   7.993214 C.3        1 UNL1     0.1322
     17 O         -3.80895   0.526629   6.806875 O.3        1 UNL1     -0.4828
     18 C         -5.886626   1.438847   7.862239 C.ar        1 UNL1     -0.0067
     19 C         -6.105849   2.164584   6.673348 C.ar        1 UNL1     -0.0516
     20 C         -7.218273   3.003863   6.538862 C.ar        1 UNL1     -0.0198
     21 C         -8.112836   3.131396   7.586392 C.ar        1 UNL1     0.1169
     22 C         -7.942001   2.403965   8.757075 C.ar        1 UNL1     -0.0198
     23 C         -6.839611   1.550464   8.884861 C.ar        1 UNL1     -0.0516
     24 O         -9.163915   3.987061   7.43319 O.3        1 UNL1     -0.5068
     25 O         -6.500647   -2.414305   7.729799 O.2        1 UNL1     -0.2917
     26 O         -6.49218   -3.136653   5.132363 O.3        1 UNL1     -0.5058
     27 O         -0.389771   -0.374832   2.501502 O.3        1 UNL1     -0.3648
     28 O         0.068623   -1.917103   -0.728584 O.3        1 UNL1     -0.3841
     29 O         -2.384055   0.668372   -0.340594 O.3        1 UNL1     -0.3863
     30 O         -2.799596   -2.972283   -0.610905 O.3        1 UNL1     -0.3829
     31 H         0.305294   -2.050982   1.673617 H        1 UNL1     0.0937
     32 H         0.0   0.0   0.0 H        1 UNL1     0.0671
     33 H         -1.912243   -0.843188   -1.59611 H        1 UNL1     0.0649
     34 H         -4.026948   -1.361775   -0.276532 H        1 UNL1     0.0683
     35 H         -3.63191   -2.704578   1.737189 H        1 UNL1     0.1085
     36 H         -5.33159   -2.630231   2.917893 H        1 UNL1     0.0691
     37 H         -2.936326   0.635793   4.409869 H        1 UNL1     0.0691
     38 H         -3.976655   -1.36264   8.733826 H        1 UNL1     0.0385
     39 H         -5.521872   -0.824641   9.420412 H        1 UNL1     0.0385
     40 H         -4.006936   1.076485   8.742155 H        1 UNL1     0.0789
     41 H         -5.413406   2.088711   5.840032 H        1 UNL1     0.0623
     42 H         -7.369915   3.5674   5.621561 H        1 UNL1     0.0654
     43 H         -8.644576   2.484825   9.577904 H        1 UNL1     0.0654
     44 H         -6.743066   0.989275   9.809302 H        1 UNL1     0.0623
     45 H         -8.813777   4.885027   7.315819 H        1 UNL1     0.2921
     46 H         -6.200848   -3.755995   5.82008 H        1 UNL1     0.2922
     47 H         0.416603   0.118864   2.296843 H        1 UNL1     0.2126
     48 H         0.997005   -1.958683   -0.428399 H        1 UNL1     0.2101
     49 H         -1.850412   1.244012   -0.911258 H        1 UNL1     0.2100
     50 H         -2.984694   -2.879928   -1.568466 H        1 UNL1     0.2102
@<TRIPOS>BOND
     1     1     2    1
     2     1     6    1
     3     2     3    1
     4     3     4    1
     5     3    29    1
     6     3    33    1
     7     4     5    1
     8     5     6    1
     9     5     7    1
    10     5    35    1
    11     7     8    1
    12     8     9   ar
    13     8    13   ar
    14     9    10   ar
    15     9    36    1
    16    10    11   ar
    17    10    26    1
    18    11    12   ar
    19    11    14    1
    20    12    13   ar
    21    12    17    1
    22    13    37    1
    23    14    15    1
    24    14    25    2
    25    15    16    1
    26    15    38    1
    27    15    39    1
    28    16    17    1
    29    16    18    1
    30    16    40    1
    31    18    19   ar
    32    18    23   ar
    33    19    20   ar
    34    19    41    1
    35    20    21   ar
    36    20    42    1
    37    21    22   ar
    38    21    24    1
    39    22    23   ar
    40    22    43    1
    41    23    44    1
    42    24    45    1
    43    26    46    1
    44    27    47    1
    45    28    48    1
    46    29    49    1
    47    30    50    1
    48     1    31    1
    49     1    27    1
    50     2    32    1
    51     2    28    1
    52     4    34    1
    53     4    30    1
