@<TRIPOS>MOLECULE
*****
 50 53 0 0 0
SMALL
GASTEIGER

@<TRIPOS>ATOM
     1 C         -0.971835   -1.638588   -1.06835 C.3        1 UNL1     0.1889
     2 C         -0.848812   -0.140409   -0.680709 C.3        1 UNL1     0.1342
     3 C         -2.109114   0.462025   -0.041038 C.3        1 UNL1     0.1174
     4 C         -3.402794   -0.118297   -0.617871 C.3        1 UNL1     0.1456
     5 C         -3.366861   -1.654111   -0.719599 C.3        1 UNL1     0.2326
     6 O         -2.252922   -2.062954   -1.510078 O.3        1 UNL1     -0.3076
     7 O         -3.427271   -2.314751   0.557596 O.3        1 UNL1     -0.4605
     8 C         -4.619154   -2.190486   1.248609 C.ar        1 UNL1     0.1310
     9 C         -5.409203   -3.25352   1.699254 C.ar        1 UNL1     0.0226
     10 C         -6.594872   -3.024562   2.40754 C.ar        1 UNL1     0.1343
     11 C         -7.007377   -1.726029   2.703333 C.ar        1 UNL1     0.1007
     12 C         -6.248203   -0.655596   2.223113 C.ar        1 UNL1     0.1389
     13 C         -5.057445   -0.886037   1.508674 C.ar        1 UNL1     0.0229
     14 C         -8.206701   -1.428443   3.520167 C.2        1 UNL1     0.1740
     15 C         -8.375934   0.006066   3.926484 C.3        1 UNL1     0.0520
     16 C         -7.991589   0.88932   2.747459 C.3        1 UNL1     0.1322
     17 O         -6.617714   0.662049   2.362902 O.3        1 UNL1     -0.4828
     18 C         -8.990966   0.840185   1.589203 C.ar        1 UNL1     -0.0067
     19 C         -10.371448   0.771503   1.868071 C.ar        1 UNL1     -0.0516
     20 C         -11.309538   0.677554   0.833119 C.ar        1 UNL1     -0.0198
     21 C         -10.880415   0.644045   -0.481627 C.ar        1 UNL1     0.1169
     22 C         -9.52976   0.743679   -0.789271 C.ar        1 UNL1     -0.0198
     23 C         -8.592667   0.856229   0.244772 C.ar        1 UNL1     -0.0516
     24 O         -11.820513   0.513814   -1.461247 O.3        1 UNL1     -0.5068
     25 O         -8.983535   -2.291608   3.920117 O.2        1 UNL1     -0.2917
     26 O         -7.320245   -4.104773   2.818105 O.3        1 UNL1     -0.5058
     27 O         -0.434778   -2.520284   -0.095227 O.3        1 UNL1     -0.3648
     28 O         -0.569085   0.617562   -1.872321 O.3        1 UNL1     -0.3841
     29 O         -2.048176   0.369809   1.383713 O.3        1 UNL1     -0.3863
     30 O         -3.621026   0.429161   -1.936337 O.3        1 UNL1     -0.3829
     31 H         -0.335528   -1.787494   -1.947565 H        1 UNL1     0.0937
     32 H         0.0   0.0   0.0 H        1 UNL1     0.0671
     33 H         -2.116532   1.538167   -0.263712 H        1 UNL1     0.0649
     34 H         -4.256006   0.183379   -0.000278 H        1 UNL1     0.0683
     35 H         -4.270836   -1.902676   -1.28962 H        1 UNL1     0.1085
     36 H         -5.114313   -4.286415   1.549965 H        1 UNL1     0.0691
     37 H         -4.48502   -0.035539   1.1447 H        1 UNL1     0.0691
     38 H         -7.720655   0.186536   4.7853 H        1 UNL1     0.0385
     39 H         -9.410966   0.168971   4.24578 H        1 UNL1     0.0385
     40 H         -8.009002   1.928664   3.102396 H        1 UNL1     0.0789
     41 H         -10.733169   0.786794   2.89207 H        1 UNL1     0.0623
     42 H         -12.370541   0.613244   1.061477 H        1 UNL1     0.0654
     43 H         -9.18383   0.73356   -1.815984 H        1 UNL1     0.0654
     44 H         -7.54646   0.942718   -0.032384 H        1 UNL1     0.0623
     45 H         -12.133445   1.399823   -1.705744 H        1 UNL1     0.2921
     46 H         -6.718109   -4.802082   3.122413 H        1 UNL1     0.2922
     47 H         -0.648076   -3.436771   -0.319763 H        1 UNL1     0.2126
     48 H         0.37988   0.846211   -1.84203 H        1 UNL1     0.2101
     49 H         -2.387242   1.187182   1.782122 H        1 UNL1     0.2100
     50 H         -4.236921   1.186123   -1.850343 H        1 UNL1     0.2102
@<TRIPOS>BOND
     1     1     2    1
     2     1     6    1
     3     2     3    1
     4     3     4    1
     5     3    29    1
     6     3    33    1
     7     4     5    1
     8     5     6    1
     9     5     7    1
    10     5    35    1
    11     7     8    1
    12     8     9   ar
    13     8    13   ar
    14     9    10   ar
    15     9    36    1
    16    10    11   ar
    17    10    26    1
    18    11    12   ar
    19    11    14    1
    20    12    13   ar
    21    12    17    1
    22    13    37    1
    23    14    15    1
    24    14    25    2
    25    15    16    1
    26    15    38    1
    27    15    39    1
    28    16    17    1
    29    16    18    1
    30    16    40    1
    31    18    19   ar
    32    18    23   ar
    33    19    20   ar
    34    19    41    1
    35    20    21   ar
    36    20    42    1
    37    21    22   ar
    38    21    24    1
    39    22    23   ar
    40    22    43    1
    41    23    44    1
    42    24    45    1
    43    26    46    1
    44    27    47    1
    45    28    48    1
    46    29    49    1
    47    30    50    1
    48     1    31    1
    49     1    27    1
    50     2    32    1
    51     2    28    1
    52     4    34    1
    53     4    30    1
