@<TRIPOS>MOLECULE
*****
 50 53 0 0 0
SMALL
GASTEIGER

@<TRIPOS>ATOM
     1 C         -0.348704   -1.337744   1.69105 C.3        1 UNL1     0.1889
     2 C         -0.470734   -0.973137   0.187019 C.3        1 UNL1     0.1342
     3 C         -1.9094   -0.945615   -0.35145 C.3        1 UNL1     0.1174
     4 C         -2.806372   -2.002611   0.29764 C.3        1 UNL1     0.1456
     5 C         -2.660757   -2.039992   1.829881 C.3        1 UNL1     0.2326
     6 O         -1.298925   -2.271147   2.183222 O.3        1 UNL1     -0.3076
     7 O         -3.229244   -0.893163   2.487853 O.3        1 UNL1     -0.4605
     8 C         -3.755831   -1.11609   3.747431 C.ar        1 UNL1     0.1310
     9 C         -4.58912   -2.183102   4.100156 C.ar        1 UNL1     0.0226
     10 C         -5.058624   -2.332188   5.410592 C.ar        1 UNL1     0.1343
     11 C         -4.686524   -1.430224   6.406506 C.ar        1 UNL1     0.1007
     12 C         -3.888167   -0.337732   6.057407 C.ar        1 UNL1     0.1389
     13 C         -3.418369   -0.186581   4.739123 C.ar        1 UNL1     0.0229
     14 C         -5.08501   -1.586781   7.824552 C.2        1 UNL1     0.1740
     15 C         -4.415613   -0.656981   8.793534 C.3        1 UNL1     0.0520
     16 C         -4.322508   0.721053   8.152979 C.3        1 UNL1     0.1322
     17 O         -3.550798   0.668287   6.932836 O.3        1 UNL1     -0.4828
     18 C         -5.671882   1.431129   8.019917 C.ar        1 UNL1     -0.0067
     19 C         -6.022625   2.027131   6.791107 C.ar        1 UNL1     -0.0516
     20 C         -7.227971   2.724996   6.649377 C.ar        1 UNL1     -0.0198
     21 C         -8.08581   2.839996   7.728596 C.ar        1 UNL1     0.1169
     22 C         -7.783681   2.235487   8.941907 C.ar        1 UNL1     -0.0198
     23 C         -6.586963   1.521876   9.07859 C.ar        1 UNL1     -0.0516
     24 O         -9.232926   3.559278   7.563791 O.3        1 UNL1     -0.5068
     25 O         -5.848902   -2.463771   8.219322 O.2        1 UNL1     -0.2917
     26 O         -5.868971   -3.393998   5.688946 O.3        1 UNL1     -0.5058
     27 O         -0.23775   -0.206364   2.539847 O.3        1 UNL1     -0.3648
     28 O         0.255063   -1.951791   -0.579897 O.3        1 UNL1     -0.3841
     29 O         -2.456915   0.371729   -0.268012 O.3        1 UNL1     -0.3863
     30 O         -2.466954   -3.302336   -0.232642 O.3        1 UNL1     -0.3829
     31 H         0.607496   -1.858904   1.810013 H        1 UNL1     0.0937
     32 H         0.0   0.0   0.0 H        1 UNL1     0.0671
     33 H         -1.870193   -1.177834   -1.424883 H        1 UNL1     0.0649
     34 H         -3.854101   -1.814288   0.038412 H        1 UNL1     0.0683
     35 H         -3.223561   -2.933659   2.127354 H        1 UNL1     0.1085
     36 H         -4.868844   -2.948755   3.384859 H        1 UNL1     0.0691
     37 H         -2.79911   0.673255   4.49276 H        1 UNL1     0.0691
     38 H         -3.4204   -1.061387   9.00692 H        1 UNL1     0.0385
     39 H         -4.98612   -0.641309   9.728443 H        1 UNL1     0.0385
     40 H         -3.727429   1.351853   8.82714 H        1 UNL1     0.0789
     41 H         -5.362161   1.958875   5.931583 H        1 UNL1     0.0623
     42 H         -7.481625   3.190324   5.700092 H        1 UNL1     0.0654
     43 H         -8.455299   2.306532   9.789133 H        1 UNL1     0.0654
     44 H         -6.387961   1.053412   10.037643 H        1 UNL1     0.0623
     45 H         -8.992473   4.477416   7.359044 H        1 UNL1     0.2921
     46 H         -5.480092   -3.918312   6.406775 H        1 UNL1     0.2922
     47 H         0.50465   0.34855   2.26277 H        1 UNL1     0.2126
     48 H         1.194087   -1.866025   -0.32571 H        1 UNL1     0.2101
     49 H         -2.016969   0.953138   -0.908485 H        1 UNL1     0.2100
     50 H         -2.701958   -3.310719   -1.18365 H        1 UNL1     0.2102
@<TRIPOS>BOND
     1     1     2    1
     2     1     6    1
     3     2     3    1
     4     3     4    1
     5     3    29    1
     6     3    33    1
     7     4     5    1
     8     5     6    1
     9     5     7    1
    10     5    35    1
    11     7     8    1
    12     8     9   ar
    13     8    13   ar
    14     9    10   ar
    15     9    36    1
    16    10    11   ar
    17    10    26    1
    18    11    12   ar
    19    11    14    1
    20    12    13   ar
    21    12    17    1
    22    13    37    1
    23    14    15    1
    24    14    25    2
    25    15    16    1
    26    15    38    1
    27    15    39    1
    28    16    17    1
    29    16    18    1
    30    16    40    1
    31    18    19   ar
    32    18    23   ar
    33    19    20   ar
    34    19    41    1
    35    20    21   ar
    36    20    42    1
    37    21    22   ar
    38    21    24    1
    39    22    23   ar
    40    22    43    1
    41    23    44    1
    42    24    45    1
    43    26    46    1
    44    27    47    1
    45    28    48    1
    46    29    49    1
    47    30    50    1
    48     1    31    1
    49     1    27    1
    50     2    32    1
    51     2    28    1
    52     4    34    1
    53     4    30    1
