@<TRIPOS>MOLECULE
*****
 50 53 0 0 0
SMALL
GASTEIGER

@<TRIPOS>ATOM
     1 C         -1.029349   -1.519198   -1.184602 C.3        1 UNL1     0.1889
     2 C         -0.002868   -1.092404   -0.101032 C.3        1 UNL1     0.1342
     3 C         1.433518   -1.576159   -0.352505 C.3        1 UNL1     0.1174
     4 C         1.487941   -2.95409   -1.016932 C.3        1 UNL1     0.1456
     5 C         0.518174   -3.074382   -2.206657 C.3        1 UNL1     0.2326
     6 O         -0.81221   -2.789923   -1.780006 O.3        1 UNL1     -0.3076
     7 O         0.920943   -2.305273   -3.354511 O.3        1 UNL1     -0.4605
     8 C         1.246222   -0.982427   -3.114098 C.ar        1 UNL1     0.1310
     9 C         2.387323   -0.538668   -2.437145 C.ar        1 UNL1     0.0226
     10 C         2.637578   0.827124   -2.258575 C.ar        1 UNL1     0.1343
     11 C         1.764014   1.783749   -2.773934 C.ar        1 UNL1     0.1007
     12 C         0.600236   1.35229   -3.415999 C.ar        1 UNL1     0.1389
     13 C         0.347496   -0.021095   -3.59311 C.ar        1 UNL1     0.0229
     14 C         2.022175   3.239779   -2.687417 C.2        1 UNL1     0.1740
     15 C         1.098076   4.111598   -3.485867 C.3        1 UNL1     0.0520
     16 C         -0.314438   3.557179   -3.361856 C.3        1 UNL1     0.1322
     17 O         -0.38072   2.205064   -3.866297 O.3        1 UNL1     -0.4828
     18 C         -0.931435   3.747474   -1.974114 C.ar        1 UNL1     -0.0067
     19 C         -2.279965   4.144486   -1.864289 C.ar        1 UNL1     -0.0516
     20 C         -2.861661   4.3733   -0.611597 C.ar        1 UNL1     -0.0198
     21 C         -2.105048   4.216029   0.535848 C.ar        1 UNL1     0.1169
     22 C         -0.784105   3.793603   0.461644 C.ar        1 UNL1     -0.0198
     23 C         -0.207486   3.546873   -0.790032 C.ar        1 UNL1     -0.0516
     24 O         -2.694689   4.48448   1.736122 O.3        1 UNL1     -0.5068
     25 O         2.971186   3.722988   -2.075559 O.2        1 UNL1     -0.2917
     26 O         3.76799   1.193908   -1.588334 O.3        1 UNL1     -0.5058
     27 O         -1.270624   -0.517965   -2.160361 O.3        1 UNL1     -0.3648
     28 O         -0.422654   -1.636074   1.164238 O.3        1 UNL1     -0.3841
     29 O         2.183896   -0.589117   -1.063008 O.3        1 UNL1     -0.3863
     30 O         1.152548   -3.964262   -0.040841 O.3        1 UNL1     -0.3829
     31 H         -1.991869   -1.636406   -0.674803 H        1 UNL1     0.0937
     32 H         0.0   0.0   0.0 H        1 UNL1     0.0671
     33 H         1.930079   -1.673882   0.622994 H        1 UNL1     0.0649
     34 H         2.507429   -3.164504   -1.358649 H        1 UNL1     0.0683
     35 H         0.548896   -4.139998   -2.466265 H        1 UNL1     0.1085
     36 H         3.133013   -1.230937   -2.061872 H        1 UNL1     0.0691
     37 H         -0.566318   -0.331089   -4.095445 H        1 UNL1     0.0691
     38 H         1.44028   4.091664   -4.526072 H        1 UNL1     0.0385
     39 H         1.172027   5.141786   -3.121142 H        1 UNL1     0.0385
     40 H         -0.95065   4.136441   -4.044653 H        1 UNL1     0.0789
     41 H         -2.892424   4.283665   -2.750389 H        1 UNL1     0.0623
     42 H         -3.899097   4.690626   -0.540599 H        1 UNL1     0.0654
     43 H         -0.186916   3.652757   1.354637 H        1 UNL1     0.0654
     44 H         0.823778   3.207857   -0.810199 H        1 UNL1     0.0623
     45 H         -2.946943   5.421956   1.751044 H        1 UNL1     0.2921
     46 H         4.410278   0.467169   -1.615321 H        1 UNL1     0.2922
     47 H         -1.094319   -0.864388   -3.046232 H        1 UNL1     0.2126
     48 H         0.01886   -2.502234   1.256789 H        1 UNL1     0.2101
     49 H         1.694962   0.249029   -1.078767 H        1 UNL1     0.2100
     50 H         0.21996   -3.827623   0.226224 H        1 UNL1     0.2102
@<TRIPOS>BOND
     1     1     2    1
     2     1     6    1
     3     2     3    1
     4     3     4    1
     5     3    29    1
     6     3    33    1
     7     4     5    1
     8     5     6    1
     9     5     7    1
    10     5    35    1
    11     7     8    1
    12     8     9   ar
    13     8    13   ar
    14     9    10   ar
    15     9    36    1
    16    10    11   ar
    17    10    26    1
    18    11    12   ar
    19    11    14    1
    20    12    13   ar
    21    12    17    1
    22    13    37    1
    23    14    15    1
    24    14    25    2
    25    15    16    1
    26    15    38    1
    27    15    39    1
    28    16    17    1
    29    16    18    1
    30    16    40    1
    31    18    19   ar
    32    18    23   ar
    33    19    20   ar
    34    19    41    1
    35    20    21   ar
    36    20    42    1
    37    21    22   ar
    38    21    24    1
    39    22    23   ar
    40    22    43    1
    41    23    44    1
    42    24    45    1
    43    26    46    1
    44    27    47    1
    45    28    48    1
    46    29    49    1
    47    30    50    1
    48     1    31    1
    49     1    27    1
    50     2    32    1
    51     2    28    1
    52     4    34    1
    53     4    30    1
