@<TRIPOS>MOLECULE
*****
 50 53 0 0 0
SMALL
GASTEIGER

@<TRIPOS>ATOM
     1 C         -0.294974   -2.149413   0.252624 C.3        1 UNL1     0.1889
     2 C         -0.836791   -0.70527   0.077051 C.3        1 UNL1     0.1342
     3 C         -1.786109   -0.236755   1.190493 C.3        1 UNL1     0.1174
     4 C         -2.662687   -1.366227   1.737322 C.3        1 UNL1     0.1456
     5 C         -1.8602   -2.647043   2.030389 C.3        1 UNL1     0.2326
     6 O         -1.186379   -3.079113   0.850495 O.3        1 UNL1     -0.3076
     7 O         -0.98797   -2.529038   3.169077 O.3        1 UNL1     -0.4605
     8 C         -0.121425   -3.586244   3.38107 C.ar        1 UNL1     0.1310
     9 C         0.708954   -3.742315   4.496155 C.ar        1 UNL1     0.0226
     10 C         1.541296   -4.860239   4.627893 C.ar        1 UNL1     0.1343
     11 C         1.545849   -5.861977   3.658181 C.ar        1 UNL1     0.1007
     12 C         0.751434   -5.69733   2.520385 C.ar        1 UNL1     0.1389
     13 C         -0.083424   -4.571886   2.386894 C.ar        1 UNL1     0.0229
     14 C         2.34262   -7.104022   3.787153 C.2        1 UNL1     0.1740
     15 C         2.058041   -8.16685   2.766878 C.3        1 UNL1     0.0520
     16 C         1.864939   -7.496344   1.4137 C.3        1 UNL1     0.1322
     17 O         0.759374   -6.567311   1.454864 O.3        1 UNL1     -0.4828
     18 C         3.154076   -6.922424   0.820854 C.ar        1 UNL1     -0.0067
     19 C         3.079852   -5.844037   -0.084566 C.ar        1 UNL1     -0.0516
     20 C         4.235608   -5.326349   -0.681383 C.ar        1 UNL1     -0.0198
     21 C         5.468005   -5.881828   -0.387332 C.ar        1 UNL1     0.1169
     22 C         5.576827   -6.92255   0.525846 C.ar        1 UNL1     -0.0198
     23 C         4.423173   -7.428322   1.136855 C.ar        1 UNL1     -0.0516
     24 O         6.567372   -5.376141   -1.016677 O.3        1 UNL1     -0.5068
     25 O         3.1319   -7.308656   4.705655 O.2        1 UNL1     -0.2917
     26 O         2.327749   -4.951969   5.739046 O.3        1 UNL1     -0.5058
     27 O         0.992417   -2.201938   0.84647 O.3        1 UNL1     -0.3648
     28 O         -1.565229   -0.63902   -1.162987 O.3        1 UNL1     -0.3841
     29 O         -1.065391   0.45023   2.215554 O.3        1 UNL1     -0.3863
     30 O         -3.693498   -1.674639   0.773994 O.3        1 UNL1     -0.3829
     31 H         -0.143683   -2.551444   -0.755127 H        1 UNL1     0.0937
     32 H         0.0   0.0   0.0 H        1 UNL1     0.0671
     33 H         -2.465059   0.512091   0.759244 H        1 UNL1     0.0649
     34 H         -3.167316   -1.038193   2.652825 H        1 UNL1     0.0683
     35 H         -2.63018   -3.397018   2.250724 H        1 UNL1     0.1085
     36 H         0.70996   -3.026655   5.310987 H        1 UNL1     0.0691
     37 H         -0.691457   -4.466641   1.490952 H        1 UNL1     0.0691
     38 H         1.149702   -8.692282   3.080515 H        1 UNL1     0.0385
     39 H         2.883778   -8.886477   2.758318 H        1 UNL1     0.0385
     40 H         1.542865   -8.275341   0.709461 H        1 UNL1     0.0789
     41 H         2.12346   -5.396489   -0.338858 H        1 UNL1     0.0623
     42 H         4.164058   -4.502377   -1.387048 H        1 UNL1     0.0654
     43 H         6.538538   -7.35505   0.774777 H        1 UNL1     0.0654
     44 H         4.546358   -8.23473   1.853358 H        1 UNL1     0.0623
     45 H         6.730635   -5.900413   -1.817427 H        1 UNL1     0.2921
     46 H         2.609561   -5.872381   5.860851 H        1 UNL1     0.2922
     47 H         1.378208   -3.08169   0.73219 H        1 UNL1     0.2126
     48 H         -1.083821   -1.20075   -1.800513 H        1 UNL1     0.2101
     49 H         -1.43984   0.233401   3.084213 H        1 UNL1     0.2100
     50 H         -4.081984   -2.541053   1.015071 H        1 UNL1     0.2102
@<TRIPOS>BOND
     1     1     2    1
     2     1     6    1
     3     2     3    1
     4     3     4    1
     5     3    29    1
     6     3    33    1
     7     4     5    1
     8     5     6    1
     9     5     7    1
    10     5    35    1
    11     7     8    1
    12     8     9   ar
    13     8    13   ar
    14     9    10   ar
    15     9    36    1
    16    10    11   ar
    17    10    26    1
    18    11    12   ar
    19    11    14    1
    20    12    13   ar
    21    12    17    1
    22    13    37    1
    23    14    15    1
    24    14    25    2
    25    15    16    1
    26    15    38    1
    27    15    39    1
    28    16    17    1
    29    16    18    1
    30    16    40    1
    31    18    19   ar
    32    18    23   ar
    33    19    20   ar
    34    19    41    1
    35    20    21   ar
    36    20    42    1
    37    21    22   ar
    38    21    24    1
    39    22    23   ar
    40    22    43    1
    41    23    44    1
    42    24    45    1
    43    26    46    1
    44    27    47    1
    45    28    48    1
    46    29    49    1
    47    30    50    1
    48     1    31    1
    49     1    27    1
    50     2    32    1
    51     2    28    1
    52     4    34    1
    53     4    30    1
