@<TRIPOS>MOLECULE
*****
 50 53 0 0 0
SMALL
GASTEIGER

@<TRIPOS>ATOM
     1 C         2.082124   0.626403   0.207807 C.3        1 UNL1     0.1889
     2 C         0.966639   -0.210595   -0.474152 C.3        1 UNL1     0.1342
     3 C         1.20831   -1.727832   -0.467006 C.3        1 UNL1     0.1174
     4 C         2.688445   -2.093697   -0.602877 C.3        1 UNL1     0.1456
     5 C         3.589664   -1.263212   0.329037 C.3        1 UNL1     0.2326
     6 O         3.404472   0.126983   0.072265 O.3        1 UNL1     -0.3076
     7 O         3.44671   -1.605767   1.719555 O.3        1 UNL1     -0.4605
     8 C         4.520508   -1.294339   2.534108 C.ar        1 UNL1     0.1310
     9 C         5.863937   -1.54596   2.235467 C.ar        1 UNL1     0.0226
     10 C         6.883625   -1.176392   3.120655 C.ar        1 UNL1     0.1343
     11 C         6.585899   -0.524138   4.316383 C.ar        1 UNL1     0.1007
     12 C         5.245448   -0.304262   4.644453 C.ar        1 UNL1     0.1389
     13 C         4.220185   -0.678331   3.755443 C.ar        1 UNL1     0.0229
     14 C         7.628358   -0.036622   5.248994 C.2        1 UNL1     0.1740
     15 C         7.141327   0.835374   6.368803 C.3        1 UNL1     0.0520
     16 C         5.829465   0.263921   6.888821 C.3        1 UNL1     0.1322
     17 O         4.833727   0.23159   5.842624 O.3        1 UNL1     -0.4828
     18 C         5.990576   -1.052931   7.652149 C.ar        1 UNL1     -0.0067
     19 C         5.7621   -1.079434   9.043303 C.ar        1 UNL1     -0.0516
     20 C         5.946512   -2.256018   9.779242 C.ar        1 UNL1     -0.0198
     21 C         6.365325   -3.408266   9.138346 C.ar        1 UNL1     0.1169
     22 C         6.566204   -3.422076   7.764193 C.ar        1 UNL1     -0.0198
     23 C         6.364052   -2.250331   7.025137 C.ar        1 UNL1     -0.0516
     24 O         6.570809   -4.525194   9.893758 O.3        1 UNL1     -0.5068
     25 O         8.827869   -0.249934   5.093574 O.2        1 UNL1     -0.2917
     26 O         8.173345   -1.451283   2.770453 O.3        1 UNL1     -0.5058
     27 O         1.78794   0.971799   1.552033 O.3        1 UNL1     -0.3648
     28 O         0.864656   0.200464   -1.850138 O.3        1 UNL1     -0.3841
     29 O         0.590395   -2.334346   0.669855 O.3        1 UNL1     -0.3863
     30 O         3.106807   -1.876268   -1.967936 O.3        1 UNL1     -0.3829
     31 H         2.116525   1.587769   -0.316281 H        1 UNL1     0.0937
     32 H         0.0   0.0   0.0 H        1 UNL1     0.0671
     33 H         0.694302   -2.153392   -1.340169 H        1 UNL1     0.0649
     34 H         2.83152   -3.15879   -0.389554 H        1 UNL1     0.0683
     35 H         4.607567   -1.514475   0.005585 H        1 UNL1     0.1085
     36 H         6.16427   -1.999193   1.297117 H        1 UNL1     0.0691
     37 H         3.184522   -0.497085   4.034811 H        1 UNL1     0.0691
     38 H         7.000612   1.844044   5.965925 H        1 UNL1     0.0385
     39 H         7.910127   0.88229   7.1476 H        1 UNL1     0.0385
     40 H         5.433391   0.978689   7.622819 H        1 UNL1     0.0789
     41 H         5.441721   -0.18592   9.571167 H        1 UNL1     0.0623
     42 H         5.778561   -2.260683   10.853384 H        1 UNL1     0.0654
     43 H         6.87969   -4.322726   7.249931 H        1 UNL1     0.0654
     44 H         6.520087   -2.299976   5.951809 H        1 UNL1     0.0623
     45 H         5.795102   -5.102377   9.805118 H        1 UNL1     0.2921
     46 H         8.746757   -0.719088   3.047042 H        1 UNL1     0.2922
     47 H         1.629195   1.923198   1.626202 H        1 UNL1     0.2126
     48 H         1.185011   1.122103   -1.891191 H        1 UNL1     0.2101
     49 H         -0.074553   -2.978788   0.379453 H        1 UNL1     0.2100
     50 H         4.085856   -1.901705   -1.990915 H        1 UNL1     0.2102
@<TRIPOS>BOND
     1     1     2    1
     2     1     6    1
     3     2     3    1
     4     3     4    1
     5     3    29    1
     6     3    33    1
     7     4     5    1
     8     5     6    1
     9     5     7    1
    10     5    35    1
    11     7     8    1
    12     8     9   ar
    13     8    13   ar
    14     9    10   ar
    15     9    36    1
    16    10    11   ar
    17    10    26    1
    18    11    12   ar
    19    11    14    1
    20    12    13   ar
    21    12    17    1
    22    13    37    1
    23    14    15    1
    24    14    25    2
    25    15    16    1
    26    15    38    1
    27    15    39    1
    28    16    17    1
    29    16    18    1
    30    16    40    1
    31    18    19   ar
    32    18    23   ar
    33    19    20   ar
    34    19    41    1
    35    20    21   ar
    36    20    42    1
    37    21    22   ar
    38    21    24    1
    39    22    23   ar
    40    22    43    1
    41    23    44    1
    42    24    45    1
    43    26    46    1
    44    27    47    1
    45    28    48    1
    46    29    49    1
    47    30    50    1
    48     1    31    1
    49     1    27    1
    50     2    32    1
    51     2    28    1
    52     4    34    1
    53     4    30    1
