@<TRIPOS>MOLECULE
*****
 50 53 0 0 0
SMALL
GASTEIGER

@<TRIPOS>ATOM
     1 C         -0.350404   -1.33851   1.690093 C.3        1 UNL1     0.1889
     2 C         -0.471626   -0.972852   0.186251 C.3        1 UNL1     0.1342
     3 C         -1.91009   -0.943763   -0.352675 C.3        1 UNL1     0.1174
     4 C         -2.808179   -2.000401   0.295454 C.3        1 UNL1     0.1456
     5 C         -2.663102   -2.038871   1.827719 C.3        1 UNL1     0.2326
     6 O         -1.301584   -2.271411   2.181363 O.3        1 UNL1     -0.3076
     7 O         -3.230826   -0.891971   2.486225 O.3        1 UNL1     -0.4605
     8 C         -3.754626   -1.114454   3.747044 C.ar        1 UNL1     0.1310
     9 C         -4.586581   -2.181717   4.10215 C.ar        1 UNL1     0.0226
     10 C         -5.05323   -2.330298   5.413662 C.ar        1 UNL1     0.1343
     11 C         -4.679522   -1.427551   6.408263 C.ar        1 UNL1     0.1007
     12 C         -3.882505   -0.334824   6.056842 C.ar        1 UNL1     0.1389
     13 C         -3.415579   -0.184183   4.737479 C.ar        1 UNL1     0.0229
     14 C         -5.074922   -1.583501   7.827239 C.2        1 UNL1     0.1740
     15 C         -4.403989   -0.652769   8.794263 C.3        1 UNL1     0.0520
     16 C         -4.312997   0.724942   8.152712 C.3        1 UNL1     0.1322
     17 O         -3.54384   0.671889   6.93097 O.3        1 UNL1     -0.4828
     18 C         -5.66304   1.434199   8.022092 C.ar        1 UNL1     -0.0067
     19 C         -6.016707   2.029294   6.79368 C.ar        1 UNL1     -0.0516
     20 C         -7.222734   2.726415   6.654094 C.ar        1 UNL1     -0.0198
     21 C         -8.078353   2.841572   7.735058 C.ar        1 UNL1     0.1169
     22 C         -7.773326   2.237935   8.948079 C.ar        1 UNL1     -0.0198
     23 C         -6.575929   1.525061   9.082644 C.ar        1 UNL1     -0.0516
     24 O         -9.22621   3.560128   7.572262 O.3        1 UNL1     -0.5068
     25 O         -5.837495   -2.46068   8.224133 O.2        1 UNL1     -0.2917
     26 O         -5.862403   -3.392391   5.694346 O.3        1 UNL1     -0.5058
     27 O         -0.238765   -0.207759   2.539638 O.3        1 UNL1     -0.3648
     28 O         0.253589   -1.951643   -0.581042 O.3        1 UNL1     -0.3841
     29 O         -2.456508   0.373996   -0.268588 O.3        1 UNL1     -0.3863
     30 O         -2.469695   -3.300082   -0.235535 O.3        1 UNL1     -0.3829
     31 H         0.605312   -1.860561   1.809043 H        1 UNL1     0.0937
     32 H         0.0   0.0   0.0 H        1 UNL1     0.0671
     33 H         -1.870728   -1.17534   -1.42624 H        1 UNL1     0.0649
     34 H         -3.855661   -1.811021   0.035999 H        1 UNL1     0.0683
     35 H         -3.226766   -2.932244   2.124444 H        1 UNL1     0.1085
     36 H         -4.867395   -2.94794   3.387891 H        1 UNL1     0.0691
     37 H         -2.797316   0.675849   4.489308 H        1 UNL1     0.0691
     38 H         -3.408105   -1.056506   9.005778 H        1 UNL1     0.0385
     39 H         -4.972527   -0.636867   9.730367 H        1 UNL1     0.0385
     40 H         -3.71684   1.356461   8.825246 H        1 UNL1     0.0789
     41 H         -5.358026   1.9609   5.932801 H        1 UNL1     0.0623
     42 H         -7.478651   3.19105   5.705078 H        1 UNL1     0.0654
     43 H         -8.443191   2.309105   9.796681 H        1 UNL1     0.0654
     44 H         -6.374642   1.057265   10.041547 H        1 UNL1     0.0623
     45 H         -8.986696   4.478279   7.366473 H        1 UNL1     0.2921
     46 H         -5.471719   -3.916074   6.411656 H        1 UNL1     0.2922
     47 H         0.504201   0.346695   2.263155 H        1 UNL1     0.2126
     48 H         1.192601   -1.866839   -0.326491 H        1 UNL1     0.2101
     49 H         -2.015855   0.955431   -0.90855 H        1 UNL1     0.2100
     50 H         -2.704392   -3.307665   -1.186625 H        1 UNL1     0.2102
@<TRIPOS>BOND
     1     1     2    1
     2     1     6    1
     3     2     3    1
     4     3     4    1
     5     3    29    1
     6     3    33    1
     7     4     5    1
     8     5     6    1
     9     5     7    1
    10     5    35    1
    11     7     8    1
    12     8     9   ar
    13     8    13   ar
    14     9    10   ar
    15     9    36    1
    16    10    11   ar
    17    10    26    1
    18    11    12   ar
    19    11    14    1
    20    12    13   ar
    21    12    17    1
    22    13    37    1
    23    14    15    1
    24    14    25    2
    25    15    16    1
    26    15    38    1
    27    15    39    1
    28    16    17    1
    29    16    18    1
    30    16    40    1
    31    18    19   ar
    32    18    23   ar
    33    19    20   ar
    34    19    41    1
    35    20    21   ar
    36    20    42    1
    37    21    22   ar
    38    21    24    1
    39    22    23   ar
    40    22    43    1
    41    23    44    1
    42    24    45    1
    43    26    46    1
    44    27    47    1
    45    28    48    1
    46    29    49    1
    47    30    50    1
    48     1    31    1
    49     1    27    1
    50     2    32    1
    51     2    28    1
    52     4    34    1
    53     4    30    1
