@<TRIPOS>MOLECULE
*****
 50 53 0 0 0
SMALL
GASTEIGER

@<TRIPOS>ATOM
     1 C         -0.656657   -2.081521   0.08293 C.3        1 UNL1     0.1889
     2 C         -0.339757   -0.718911   0.75584 C.3        1 UNL1     0.1342
     3 C         0.699827   -0.787746   1.884997 C.3        1 UNL1     0.1174
     4 C         0.614165   -2.085457   2.692292 C.3        1 UNL1     0.1456
     5 C         0.509407   -3.332574   1.795583 C.3        1 UNL1     0.2326
     6 O         -0.620514   -3.217937   0.933605 O.3        1 UNL1     -0.3076
     7 O         1.728098   -3.637746   1.093456 O.3        1 UNL1     -0.4605
     8 C         1.582787   -4.288651   -0.118458 C.ar        1 UNL1     0.1310
     9 C         2.603882   -4.503648   -1.050359 C.ar        1 UNL1     0.0226
     10 C         2.360123   -5.190904   -2.245417 C.ar        1 UNL1     0.1343
     11 C         1.093541   -5.701116   -2.527012 C.ar        1 UNL1     0.1007
     12 C         0.056228   -5.457111   -1.623006 C.ar        1 UNL1     0.1389
     13 C         0.300973   -4.763757   -0.422676 C.ar        1 UNL1     0.0229
     14 C         0.800222   -6.50695   -3.734799 C.2        1 UNL1     0.1740
     15 C         -0.549925   -7.160878   -3.766896 C.3        1 UNL1     0.0520
     16 C         -1.57348   -6.180378   -3.211097 C.3        1 UNL1     0.1322
     17 O         -1.251268   -5.819401   -1.849868 O.3        1 UNL1     -0.4828
     18 C         -1.851953   -4.991306   -4.133748 C.ar        1 UNL1     -0.0067
     19 C         -1.339461   -3.720819   -3.799938 C.ar        1 UNL1     -0.0516
     20 C         -1.615087   -2.603099   -4.596617 C.ar        1 UNL1     -0.0198
     21 C         -2.406218   -2.74105   -5.723075 C.ar        1 UNL1     0.1169
     22 C         -2.897674   -3.985279   -6.096176 C.ar        1 UNL1     -0.0198
     23 C         -2.606919   -5.106511   -5.309821 C.ar        1 UNL1     -0.0516
     24 O         -2.684513   -1.623343   -6.453611 O.3        1 UNL1     -0.5068
     25 O         1.618782   -6.709214   -4.627846 O.2        1 UNL1     -0.2917
     26 O         3.398839   -5.366136   -3.112566 O.3        1 UNL1     -0.5058
     27 O         0.068299   -2.301883   -1.116514 O.3        1 UNL1     -0.3648
     28 O         -1.555357   -0.19711   1.323948 O.3        1 UNL1     -0.3841
     29 O         2.013033   -0.534973   1.381284 O.3        1 UNL1     -0.3863
     30 O         -0.545293   -2.033077   3.551712 O.3        1 UNL1     -0.3829
     31 H         -1.702812   -2.035708   -0.238845 H        1 UNL1     0.0937
     32 H         0.0   0.0   0.0 H        1 UNL1     0.0671
     33 H         0.491697   0.035119   2.583062 H        1 UNL1     0.0649
     34 H         1.491004   -2.180062   3.342372 H        1 UNL1     0.0683
     35 H         0.292869   -4.146539   2.498754 H        1 UNL1     0.1085
     36 H         3.622461   -4.180867   -0.864803 H        1 UNL1     0.0691
     37 H         -0.523873   -4.585847   0.26396 H        1 UNL1     0.0691
     38 H         -0.494614   -8.065215   -3.151558 H        1 UNL1     0.0385
     39 H         -0.779333   -7.460368   -4.795223 H        1 UNL1     0.0385
     40 H         -2.528158   -6.718106   -3.133896 H        1 UNL1     0.0789
     41 H         -0.72347   -3.584616   -2.915826 H        1 UNL1     0.0623
     42 H         -1.223942   -1.626541   -4.322115 H        1 UNL1     0.0654
     43 H         -3.505741   -4.107264   -6.984594 H        1 UNL1     0.0654
     44 H         -2.998532   -6.064905   -5.636877 H        1 UNL1     0.0623
     45 H         -3.618608   -1.653672   -6.716789 H        1 UNL1     0.2921
     46 H         3.056936   -5.659761   -3.97181 H        1 UNL1     0.2922
     47 H         -0.09066   -3.198199   -1.443943 H        1 UNL1     0.2126
     48 H         -2.115021   0.085836   0.575317 H        1 UNL1     0.2101
     49 H         2.643817   -1.157111   1.777328 H        1 UNL1     0.2100
     50 H         -0.389222   -1.340455   4.226716 H        1 UNL1     0.2102
@<TRIPOS>BOND
     1     1     2    1
     2     1     6    1
     3     2     3    1
     4     3     4    1
     5     3    29    1
     6     3    33    1
     7     4     5    1
     8     5     6    1
     9     5     7    1
    10     5    35    1
    11     7     8    1
    12     8     9   ar
    13     8    13   ar
    14     9    10   ar
    15     9    36    1
    16    10    11   ar
    17    10    26    1
    18    11    12   ar
    19    11    14    1
    20    12    13   ar
    21    12    17    1
    22    13    37    1
    23    14    15    1
    24    14    25    2
    25    15    16    1
    26    15    38    1
    27    15    39    1
    28    16    17    1
    29    16    18    1
    30    16    40    1
    31    18    19   ar
    32    18    23   ar
    33    19    20   ar
    34    19    41    1
    35    20    21   ar
    36    20    42    1
    37    21    22   ar
    38    21    24    1
    39    22    23   ar
    40    22    43    1
    41    23    44    1
    42    24    45    1
    43    26    46    1
    44    27    47    1
    45    28    48    1
    46    29    49    1
    47    30    50    1
    48     1    31    1
    49     1    27    1
    50     2    32    1
    51     2    28    1
    52     4    34    1
    53     4    30    1
