@<TRIPOS>MOLECULE
*****
 50 53 0 0 0
SMALL
GASTEIGER

@<TRIPOS>ATOM
     1 C         -0.615509   0.874035   -1.904735 C.3        1 UNL1     0.1889
     2 C         -0.014312   0.987371   -0.477971 C.3        1 UNL1     0.1342
     3 C         -0.736636   1.980573   0.445211 C.3        1 UNL1     0.1174
     4 C         -1.274398   3.202953   -0.302931 C.3        1 UNL1     0.1456
     5 C         -2.016833   2.823318   -1.597161 C.3        1 UNL1     0.2326
     6 O         -1.156199   2.069431   -2.447944 O.3        1 UNL1     -0.3076
     7 O         -3.284573   2.183155   -1.364033 O.3        1 UNL1     -0.4605
     8 C         -3.576127   1.877334   -0.04684 C.ar        1 UNL1     0.1310
     9 C         -4.861584   1.732771   0.486081 C.ar        1 UNL1     0.0226
     10 C         -5.053786   1.403955   1.833241 C.ar        1 UNL1     0.1343
     11 C         -3.963775   1.188133   2.675344 C.ar        1 UNL1     0.1007
     12 C         -2.675733   1.369819   2.164735 C.ar        1 UNL1     0.1389
     13 C         -2.482779   1.703034   0.81079 C.ar        1 UNL1     0.0229
     14 C         -4.108214   0.756937   4.085082 C.2        1 UNL1     0.1740
     15 C         -2.837299   0.356657   4.775082 C.3        1 UNL1     0.0520
     16 C         -1.738222   1.325099   4.360224 C.3        1 UNL1     0.1322
     17 O         -1.535709   1.288859   2.930278 O.3        1 UNL1     -0.4828
     18 C         -1.903946   2.73108   4.942012 C.ar        1 UNL1     -0.0067
     19 C         -1.686982   3.852621   4.115401 C.ar        1 UNL1     -0.0516
     20 C         -1.783785   5.151945   4.6276 C.ar        1 UNL1     -0.0198
     21 C         -2.08897   5.342465   5.963411 C.ar        1 UNL1     0.1169
     22 C         -2.340942   4.258731   6.794596 C.ar        1 UNL1     -0.0198
     23 C         -2.262329   2.959765   6.278297 C.ar        1 UNL1     -0.0516
     24 O         -2.137364   6.621245   6.435406 O.3        1 UNL1     -0.5068
     25 O         -5.192797   0.647787   4.650989 O.2        1 UNL1     -0.2917
     26 O         -6.333045   1.278915   2.290895 O.3        1 UNL1     -0.5058
     27 O         -1.505374   -0.220243   -2.057978 O.3        1 UNL1     -0.3648
     28 O         1.352454   1.425057   -0.592375 O.3        1 UNL1     -0.3841
     29 O         -1.740685   1.317844   1.216448 O.3        1 UNL1     -0.3863
     30 O         -0.173377   4.075276   -0.638335 O.3        1 UNL1     -0.3829
     31 H         0.217073   0.640782   -2.577402 H        1 UNL1     0.0937
     32 H         0.0   0.0   0.0 H        1 UNL1     0.0671
     33 H         -0.004947   2.351931   1.176267 H        1 UNL1     0.0649
     34 H         -1.948168   3.772483   0.346739 H        1 UNL1     0.0683
     35 H         -2.19254   3.78599   -2.093415 H        1 UNL1     0.1085
     36 H         -5.748692   1.832496   -0.129722 H        1 UNL1     0.0691
     37 H         -1.469937   1.839886   0.438076 H        1 UNL1     0.0691
     38 H         -2.600015   -0.666511   4.464677 H        1 UNL1     0.0385
     39 H         -3.001632   0.356142   5.858028 H        1 UNL1     0.0385
     40 H         -0.796947   0.945788   4.780516 H        1 UNL1     0.0789
     41 H         -1.437127   3.729471   3.065612 H        1 UNL1     0.0623
     42 H         -1.602536   6.008385   3.982873 H        1 UNL1     0.0654
     43 H         -2.59549   4.39699   7.838627 H        1 UNL1     0.0654
     44 H         -2.47574   2.136818   6.953619 H        1 UNL1     0.0623
     45 H         -2.414792   6.594579   7.365481 H        1 UNL1     0.2921
     46 H         -6.480477   0.369334   2.594768 H        1 UNL1     0.2922
     47 H         -2.322224   -0.059047   -1.565402 H        1 UNL1     0.2126
     48 H         1.437568   1.850576   -1.467259 H        1 UNL1     0.2101
     49 H         -2.404034   1.959766   1.515946 H        1 UNL1     0.2100
     50 H         -0.175391   4.821174   -0.00324 H        1 UNL1     0.2102
@<TRIPOS>BOND
     1     1     2    1
     2     1     6    1
     3     2     3    1
     4     3     4    1
     5     3    29    1
     6     3    33    1
     7     4     5    1
     8     5     6    1
     9     5     7    1
    10     5    35    1
    11     7     8    1
    12     8     9   ar
    13     8    13   ar
    14     9    10   ar
    15     9    36    1
    16    10    11   ar
    17    10    26    1
    18    11    12   ar
    19    11    14    1
    20    12    13   ar
    21    12    17    1
    22    13    37    1
    23    14    15    1
    24    14    25    2
    25    15    16    1
    26    15    38    1
    27    15    39    1
    28    16    17    1
    29    16    18    1
    30    16    40    1
    31    18    19   ar
    32    18    23   ar
    33    19    20   ar
    34    19    41    1
    35    20    21   ar
    36    20    42    1
    37    21    22   ar
    38    21    24    1
    39    22    23   ar
    40    22    43    1
    41    23    44    1
    42    24    45    1
    43    26    46    1
    44    27    47    1
    45    28    48    1
    46    29    49    1
    47    30    50    1
    48     1    31    1
    49     1    27    1
    50     2    32    1
    51     2    28    1
    52     4    34    1
    53     4    30    1
