@<TRIPOS>MOLECULE
*****
 50 53 0 0 0
SMALL
GASTEIGER

@<TRIPOS>ATOM
     1 C         0.919162   -0.008068   1.981384 C.3        1 UNL1     0.1889
     2 C         -0.32182   0.0053   1.048792 C.3        1 UNL1     0.1342
     3 C         -1.279794   1.185327   1.273044 C.3        1 UNL1     0.1174
     4 C         -1.370327   1.605355   2.742226 C.3        1 UNL1     0.1456
     5 C         0.012564   1.723805   3.408519 C.3        1 UNL1     0.2326
     6 O         0.713739   0.487439   3.296172 O.3        1 UNL1     -0.3076
     7 O         0.777056   2.851966   2.945783 O.3        1 UNL1     -0.4605
     8 C         1.627734   3.428642   3.8717 C.ar        1 UNL1     0.1310
     9 C         1.295538   3.73754   5.195153 C.ar        1 UNL1     0.0226
     10 C         2.235089   4.306261   6.063314 C.ar        1 UNL1     0.1343
     11 C         3.537916   4.558156   5.63549 C.ar        1 UNL1     0.1007
     12 C         3.869781   4.29197   4.304402 C.ar        1 UNL1     0.1389
     13 C         2.924129   3.722575   3.430925 C.ar        1 UNL1     0.0229
     14 C         4.593862   5.079769   6.53385 C.2        1 UNL1     0.1740
     15 C         5.984479   5.079231   5.970171 C.3        1 UNL1     0.0520
     16 C         5.913246   5.509533   4.511499 C.3        1 UNL1     0.1322
     17 O         5.089559   4.60056   3.748363 O.3        1 UNL1     -0.4828
     18 C         5.56934   6.988849   4.321561 C.ar        1 UNL1     -0.0067
     19 C         4.568515   7.354133   3.39791 C.ar        1 UNL1     -0.0516
     20 C         4.262423   8.700313   3.165386 C.ar        1 UNL1     -0.0198
     21 C         4.953519   9.688622   3.843221 C.ar        1 UNL1     0.1169
     22 C         5.921196   9.359417   4.783467 C.ar        1 UNL1     -0.0198
     23 C         6.214645   8.012823   5.029695 C.ar        1 UNL1     -0.0516
     24 O         4.654312   10.989509   3.562917 O.3        1 UNL1     -0.5068
     25 O         4.385748   5.420833   7.69525 O.2        1 UNL1     -0.2917
     26 O         1.847212   4.584655   7.34145 O.3        1 UNL1     -0.5058
     27 O         2.079526   0.550806   1.386404 O.3        1 UNL1     -0.3648
     28 O         -1.07187   -1.203447   1.27029 O.3        1 UNL1     -0.3841
     29 O         -0.955718   2.273496   0.405292 O.3        1 UNL1     -0.3863
     30 O         -2.152369   0.630733   3.46625 O.3        1 UNL1     -0.3829
     31 H         1.178532   -1.060229   2.141892 H        1 UNL1     0.0937
     32 H         0.0   0.0   -0.0 H        1 UNL1     0.0671
     33 H         -2.286176   0.862082   0.972329 H        1 UNL1     0.0649
     34 H         -1.895208   2.56345   2.825619 H        1 UNL1     0.0683
     35 H         -0.217434   1.864541   4.472085 H        1 UNL1     0.1085
     36 H         0.316258   3.514379   5.604212 H        1 UNL1     0.0691
     37 H         3.207128   3.5259   2.399071 H        1 UNL1     0.0691
     38 H         6.379061   4.061775   6.062989 H        1 UNL1     0.0385
     39 H         6.614508   5.746326   6.568356 H        1 UNL1     0.0385
     40 H         6.919839   5.388608   4.088808 H        1 UNL1     0.0789
     41 H         4.018064   6.597462   2.846454 H        1 UNL1     0.0623
     42 H         3.496841   8.969563   2.441922 H        1 UNL1     0.0654
     43 H         6.457946   10.125006   5.3309 H        1 UNL1     0.0654
     44 H         6.968979   7.791699   5.778647 H        1 UNL1     0.0623
     45 H         4.863109   11.158034   2.629793 H        1 UNL1     0.2921
     46 H         2.436388   4.13066   7.964485 H        1 UNL1     0.2922
     47 H         2.27627   0.103443   0.551528 H        1 UNL1     0.2126
     48 H         -0.493255   -1.944183   1.005248 H        1 UNL1     0.2101
     49 H         -1.173142   2.040638   -0.511386 H        1 UNL1     0.2100
     50 H         -3.070903   0.66963   3.127877 H        1 UNL1     0.2102
@<TRIPOS>BOND
     1     1     2    1
     2     1     6    1
     3     2     3    1
     4     3     4    1
     5     3    29    1
     6     3    33    1
     7     4     5    1
     8     5     6    1
     9     5     7    1
    10     5    35    1
    11     7     8    1
    12     8     9   ar
    13     8    13   ar
    14     9    10   ar
    15     9    36    1
    16    10    11   ar
    17    10    26    1
    18    11    12   ar
    19    11    14    1
    20    12    13   ar
    21    12    17    1
    22    13    37    1
    23    14    15    1
    24    14    25    2
    25    15    16    1
    26    15    38    1
    27    15    39    1
    28    16    17    1
    29    16    18    1
    30    16    40    1
    31    18    19   ar
    32    18    23   ar
    33    19    20   ar
    34    19    41    1
    35    20    21   ar
    36    20    42    1
    37    21    22   ar
    38    21    24    1
    39    22    23   ar
    40    22    43    1
    41    23    44    1
    42    24    45    1
    43    26    46    1
    44    27    47    1
    45    28    48    1
    46    29    49    1
    47    30    50    1
    48     1    31    1
    49     1    27    1
    50     2    32    1
    51     2    28    1
    52     4    34    1
    53     4    30    1
