@<TRIPOS>MOLECULE
*****
 50 53 0 0 0
SMALL
GASTEIGER

@<TRIPOS>ATOM
     1 C         -0.316979   -1.374427   1.667717 C.3        1 UNL1     0.1889
     2 C         -0.459939   -0.980888   0.172849 C.3        1 UNL1     0.1342
     3 C         -1.905043   -0.955551   -0.348205 C.3        1 UNL1     0.1174
     4 C         -2.784987   -2.033371   0.289855 C.3        1 UNL1     0.1456
     5 C         -2.620983   -2.100115   1.819238 C.3        1 UNL1     0.2326
     6 O         -1.253102   -2.326022   2.152007 O.3        1 UNL1     -0.3076
     7 O         -3.191708   -0.97186   2.506722 O.3        1 UNL1     -0.4605
     8 C         -3.701422   -1.224701   3.767592 C.ar        1 UNL1     0.1310
     9 C         -4.515423   -2.309822   4.109958 C.ar        1 UNL1     0.0226
     10 C         -4.968577   -2.488909   5.422391 C.ar        1 UNL1     0.1343
     11 C         -4.598776   -1.599389   6.430281 C.ar        1 UNL1     0.1007
     12 C         -3.820029   -0.489368   6.092363 C.ar        1 UNL1     0.1389
     13 C         -3.366694   -0.308073   4.772116 C.ar        1 UNL1     0.0229
     14 C         -4.979656   -1.786815   7.84942 C.2        1 UNL1     0.1740
     15 C         -4.313296   -0.864656   8.827752 C.3        1 UNL1     0.0520
     16 C         -4.246937   0.525712   8.210961 C.3        1 UNL1     0.1322
     17 O         -3.487749   0.505807   6.982016 O.3        1 UNL1     -0.4828
     18 C         -5.607744   1.218288   8.104809 C.ar        1 UNL1     -0.0067
     19 C         -5.739608   2.365739   7.295994 C.ar        1 UNL1     -0.0516
     20 C         -6.957851   3.050671   7.214039 C.ar        1 UNL1     -0.0198
     21 C         -8.047191   2.603496   7.940125 C.ar        1 UNL1     0.1169
     22 C         -7.95766   1.457283   8.719239 C.ar        1 UNL1     -0.0198
     23 C         -6.744634   0.761551   8.786913 C.ar        1 UNL1     -0.0516
     24 O         -9.206601   3.318001   7.864948 O.3        1 UNL1     -0.5068
     25 O         -5.726551   -2.681697   8.236485 O.2        1 UNL1     -0.2917
     26 O         -5.760517   -3.567179   5.690253 O.3        1 UNL1     -0.5058
     27 O         -0.20595   -0.259318   2.537769 O.3        1 UNL1     -0.3648
     28 O         0.265319   -1.93741   -0.621993 O.3        1 UNL1     -0.3841
     29 O         -2.463073   0.354873   -0.23191 O.3        1 UNL1     -0.3863
     30 O         -2.440458   -3.319106   -0.270391 O.3        1 UNL1     -0.3829
     31 H         0.645094   -1.88923   1.765047 H        1 UNL1     0.0937
     32 H         0.0   0.0   0.0 H        1 UNL1     0.0671
     33 H         -1.876467   -1.165864   -1.426477 H        1 UNL1     0.0649
     34 H         -3.837313   -1.849341   0.046662 H        1 UNL1     0.0683
     35 H         -3.172376   -3.004593   2.105181 H        1 UNL1     0.1085
     36 H         -4.791799   -3.066689   3.384086 H        1 UNL1     0.0691
     37 H         -2.762562   0.564924   4.534643 H        1 UNL1     0.0691
     38 H         -3.310126   -1.258227   9.023397 H        1 UNL1     0.0385
     39 H         -4.873857   -0.873853   9.768744 H        1 UNL1     0.0385
     40 H         -3.65376   1.153086   8.889978 H        1 UNL1     0.0789
     41 H         -4.896891   2.742146   6.723458 H        1 UNL1     0.0623
     42 H         -7.043624   3.941109   6.59616 H        1 UNL1     0.0654
     43 H         -8.808683   1.089725   9.280105 H        1 UNL1     0.0654
     44 H         -6.713472   -0.135983   9.397083 H        1 UNL1     0.0623
     45 H         -9.041909   4.207747   8.217008 H        1 UNL1     0.2921
     46 H         -5.367695   -4.086334   6.409684 H        1 UNL1     0.2922
     47 H         0.521266   0.313465   2.256811 H        1 UNL1     0.2126
     48 H         1.211094   -1.817078   -0.410423 H        1 UNL1     0.2101
     49 H         -2.036073   0.952848   -0.865858 H        1 UNL1     0.2100
     50 H         -2.707284   -3.318537   -1.213002 H        1 UNL1     0.2102
@<TRIPOS>BOND
     1     1     2    1
     2     1     6    1
     3     2     3    1
     4     3     4    1
     5     3    29    1
     6     3    33    1
     7     4     5    1
     8     5     6    1
     9     5     7    1
    10     5    35    1
    11     7     8    1
    12     8     9   ar
    13     8    13   ar
    14     9    10   ar
    15     9    36    1
    16    10    11   ar
    17    10    26    1
    18    11    12   ar
    19    11    14    1
    20    12    13   ar
    21    12    17    1
    22    13    37    1
    23    14    15    1
    24    14    25    2
    25    15    16    1
    26    15    38    1
    27    15    39    1
    28    16    17    1
    29    16    18    1
    30    16    40    1
    31    18    19   ar
    32    18    23   ar
    33    19    20   ar
    34    19    41    1
    35    20    21   ar
    36    20    42    1
    37    21    22   ar
    38    21    24    1
    39    22    23   ar
    40    22    43    1
    41    23    44    1
    42    24    45    1
    43    26    46    1
    44    27    47    1
    45    28    48    1
    46    29    49    1
    47    30    50    1
    48     1    31    1
    49     1    27    1
    50     2    32    1
    51     2    28    1
    52     4    34    1
    53     4    30    1
