@<TRIPOS>MOLECULE
*****
 50 53 0 0 0
SMALL
GASTEIGER

@<TRIPOS>ATOM
     1 C         -0.211186   -1.183906   1.823341 C.3        1 UNL1     0.1889
     2 C         -0.520952   -0.908307   0.327336 C.3        1 UNL1     0.1342
     3 C         -2.015269   -0.776005   -0.004293 C.3        1 UNL1     0.1174
     4 C         -2.895511   -1.695832   0.845537 C.3        1 UNL1     0.1456
     5 C         -2.529891   -1.646919   2.340292 C.3        1 UNL1     0.2326
     6 O         -1.156225   -1.98607   2.516037 O.3        1 UNL1     -0.3076
     7 O         -2.89346   -0.409581   2.979144 O.3        1 UNL1     -0.4605
     8 C         -3.235021   -0.495505   4.316859 C.ar        1 UNL1     0.1310
     9 C         -4.088349   -1.453178   4.875423 C.ar        1 UNL1     0.0226
     10 C         -4.359768   -1.467622   6.248749 C.ar        1 UNL1     0.1343
     11 C         -3.765066   -0.538411   7.101237 C.ar        1 UNL1     0.1007
     12 C         -2.943475   0.448089   6.549341 C.ar        1 UNL1     0.1389
     13 C         -2.672812   0.464019   5.168066 C.ar        1 UNL1     0.0229
     14 C         -3.950508   -0.559557   8.570699 C.2        1 UNL1     0.1740
     15 C         -3.065001   0.367632   9.350281 C.3        1 UNL1     0.0520
     16 C         -2.959451   1.683814   8.592336 C.3        1 UNL1     0.1322
     17 O         -2.39309   1.475659   7.279714 O.3        1 UNL1     -0.4828
     18 C         -4.250236   2.506299   8.603142 C.ar        1 UNL1     -0.0067
     19 C         -4.746535   3.032099   7.39259 C.ar        1 UNL1     -0.0516
     20 C         -5.898095   3.828036   7.37373 C.ar        1 UNL1     -0.0198
     21 C         -6.556748   4.110884   8.556947 C.ar        1 UNL1     0.1169
     22 C         -6.111463   3.580031   9.760589 C.ar        1 UNL1     -0.0198
     23 C         -4.970488   2.768888   9.777313 C.ar        1 UNL1     -0.0516
     24 O         -7.65306   4.920658   8.50435 O.3        1 UNL1     -0.5068
     25 O         -4.713397   -1.332109   9.14485 O.2        1 UNL1     -0.2917
     26 O         -5.201607   -2.427366   6.730188 O.3        1 UNL1     -0.5058
     27 O         0.121418   -0.015637   2.556354 O.3        1 UNL1     -0.3648
     28 O         -0.003784   -2.001089   -0.454375 O.3        1 UNL1     -0.3841
     29 O         -2.427858   0.591046   0.051142 O.3        1 UNL1     -0.3863
     30 O         -2.752158   -3.054336   0.376915 O.3        1 UNL1     -0.3829
     31 H         0.703111   -1.786861   1.847563 H        1 UNL1     0.0937
     32 H         0.0   0.0   0.0 H        1 UNL1     0.0671
     33 H         -2.154747   -1.080654   -1.050933 H        1 UNL1     0.0649
     34 H         -3.949577   -1.42367   0.721952 H        1 UNL1     0.0683
     35 H         -3.118397   -2.460109   2.783307 H        1 UNL1     0.1085
     36 H         -4.537435   -2.23644   4.274637 H        1 UNL1     0.0691
     37 H         -2.030728   1.243228   4.76303 H        1 UNL1     0.0691
     38 H         -2.085348   -0.112599   9.446124 H        1 UNL1     0.0385
     39 H         -3.480519   0.500587   10.354993 H        1 UNL1     0.0385
     40 H         -2.217342   2.300797   9.11686 H        1 UNL1     0.0789
     41 H         -4.242435   2.832152   6.451552 H        1 UNL1     0.0623
     42 H         -6.264087   4.237442   6.435408 H        1 UNL1     0.0654
     43 H         -6.628307   3.782819   10.690998 H        1 UNL1     0.0654
     44 H         -4.656905   2.362368   10.734001 H        1 UNL1     0.0623
     45 H         -7.381087   5.78238   8.149129 H        1 UNL1     0.2921
     46 H         -4.74975   -2.936988   7.421218 H        1 UNL1     0.2922
     47 H         0.866764   0.439711   2.140449 H        1 UNL1     0.2126
     48 H         0.961603   -2.017556   -0.307777 H        1 UNL1     0.2101
     49 H         -2.031217   1.085528   -0.683676 H        1 UNL1     0.2100
     50 H         -3.119195   -3.100679   -0.530195 H        1 UNL1     0.2102
@<TRIPOS>BOND
     1     1     2    1
     2     1     6    1
     3     2     3    1
     4     3     4    1
     5     3    29    1
     6     3    33    1
     7     4     5    1
     8     5     6    1
     9     5     7    1
    10     5    35    1
    11     7     8    1
    12     8     9   ar
    13     8    13   ar
    14     9    10   ar
    15     9    36    1
    16    10    11   ar
    17    10    26    1
    18    11    12   ar
    19    11    14    1
    20    12    13   ar
    21    12    17    1
    22    13    37    1
    23    14    15    1
    24    14    25    2
    25    15    16    1
    26    15    38    1
    27    15    39    1
    28    16    17    1
    29    16    18    1
    30    16    40    1
    31    18    19   ar
    32    18    23   ar
    33    19    20   ar
    34    19    41    1
    35    20    21   ar
    36    20    42    1
    37    21    22   ar
    38    21    24    1
    39    22    23   ar
    40    22    43    1
    41    23    44    1
    42    24    45    1
    43    26    46    1
    44    27    47    1
    45    28    48    1
    46    29    49    1
    47    30    50    1
    48     1    31    1
    49     1    27    1
    50     2    32    1
    51     2    28    1
    52     4    34    1
    53     4    30    1
