@<TRIPOS>MOLECULE
*****
 50 53 0 0 0
SMALL
GASTEIGER

@<TRIPOS>ATOM
     1 C         -0.334938   -1.33023   1.699738 C.3        1 UNL1     0.1889
     2 C         -0.463858   -0.975065   0.194023 C.3        1 UNL1     0.1342
     3 C         -1.904288   -0.959927   -0.340203 C.3        1 UNL1     0.1174
     4 C         -2.792438   -2.018946   0.317662 C.3        1 UNL1     0.1456
     5 C         -2.641967   -2.046582   1.849641 C.3        1 UNL1     0.2326
     6 O         -1.277609   -2.266906   2.200142 O.3        1 UNL1     -0.3076
     7 O         -3.215881   -0.899687   2.502767 O.3        1 UNL1     -0.4605
     8 C         -3.727029   -1.116283   3.769787 C.ar        1 UNL1     0.1310
     9 C         -4.545165   -2.188697   4.141115 C.ar        1 UNL1     0.0226
     10 C         -4.999502   -2.330374   5.457705 C.ar        1 UNL1     0.1343
     11 C         -4.626826   -1.41515   6.441228 C.ar        1 UNL1     0.1007
     12 C         -3.843854   -0.317595   6.073652 C.ar        1 UNL1     0.1389
     13 C         -3.389325   -0.173924   4.749193 C.ar        1 UNL1     0.0229
     14 C         -5.008963   -1.562528   7.864747 C.2        1 UNL1     0.1740
     15 C         -4.339598   -0.61657   8.817985 C.3        1 UNL1     0.0520
     16 C         -4.267864   0.756264   8.163662 C.3        1 UNL1     0.1322
     17 O         -3.508262   0.700168   6.936092 O.3        1 UNL1     -0.4828
     18 C         -5.626064   1.450696   8.038041 C.ar        1 UNL1     -0.0067
     19 C         -6.002109   2.018267   6.803267 C.ar        1 UNL1     -0.0516
     20 C         -7.216324   2.701679   6.66691 C.ar        1 UNL1     -0.0198
     21 C         -8.057982   2.830463   7.757256 C.ar        1 UNL1     0.1169
     22 C         -7.730704   2.253613   8.97749 C.ar        1 UNL1     -0.0198
     23 C         -6.525042   1.554276   9.109257 C.ar        1 UNL1     -0.0516
     24 O         -9.214553   3.535368   7.596463 O.3        1 UNL1     -0.5068
     25 O         -5.759309   -2.443805   8.275619 O.2        1 UNL1     -0.2917
     26 O         -5.795521   -3.398045   5.754381 O.3        1 UNL1     -0.5058
     27 O         -0.228753   -0.1933   2.5417 O.3        1 UNL1     -0.3648
     28 O         0.265945   -1.953403   -0.569488 O.3        1 UNL1     -0.3841
     29 O         -2.460067   0.354312   -0.262638 O.3        1 UNL1     -0.3863
     30 O         -2.446213   -3.319478   -0.206203 O.3        1 UNL1     -0.3829
     31 H         0.624971   -1.844514   1.818765 H        1 UNL1     0.0937
     32 H         0.0   0.0   0.0 H        1 UNL1     0.0671
     33 H         -1.866815   -1.198051   -1.412403 H        1 UNL1     0.0649
     34 H         -3.842141   -1.838884   0.060558 H        1 UNL1     0.0683
     35 H         -3.198075   -2.942141   2.153941 H        1 UNL1     0.1085
     36 H         -4.82404   -2.963995   3.435947 H        1 UNL1     0.0691
     37 H         -2.781882   0.690068   4.488379 H        1 UNL1     0.0691
     38 H         -3.337964   -1.008364   9.024757 H        1 UNL1     0.0385
     39 H         -4.900566   -0.598124   9.758598 H        1 UNL1     0.0385
     40 H         -3.672649   1.399679   8.825671 H        1 UNL1     0.0789
     41 H         -5.354757   1.938812   5.934778 H        1 UNL1     0.0623
     42 H         -7.489577   3.145204   5.712641 H        1 UNL1     0.0654
     43 H         -8.389432   2.335501   9.833809 H        1 UNL1     0.0654
     44 H         -6.306246   1.107296   10.074235 H        1 UNL1     0.0623
     45 H         -8.986822   4.445043   7.344776 H        1 UNL1     0.2921
     46 H         -5.392976   -3.91218   6.47204 H        1 UNL1     0.2922
     47 H         0.513456   0.361266   2.263417 H        1 UNL1     0.2126
     48 H         1.199698   -1.885271   -0.291647 H        1 UNL1     0.2101
     49 H         -2.0201   0.93694   -0.901988 H        1 UNL1     0.2100
     50 H         -2.678801   -3.332919   -1.157747 H        1 UNL1     0.2102
@<TRIPOS>BOND
     1     1     2    1
     2     1     6    1
     3     2     3    1
     4     3     4    1
     5     3    29    1
     6     3    33    1
     7     4     5    1
     8     5     6    1
     9     5     7    1
    10     5    35    1
    11     7     8    1
    12     8     9   ar
    13     8    13   ar
    14     9    10   ar
    15     9    36    1
    16    10    11   ar
    17    10    26    1
    18    11    12   ar
    19    11    14    1
    20    12    13   ar
    21    12    17    1
    22    13    37    1
    23    14    15    1
    24    14    25    2
    25    15    16    1
    26    15    38    1
    27    15    39    1
    28    16    17    1
    29    16    18    1
    30    16    40    1
    31    18    19   ar
    32    18    23   ar
    33    19    20   ar
    34    19    41    1
    35    20    21   ar
    36    20    42    1
    37    21    22   ar
    38    21    24    1
    39    22    23   ar
    40    22    43    1
    41    23    44    1
    42    24    45    1
    43    26    46    1
    44    27    47    1
    45    28    48    1
    46    29    49    1
    47    30    50    1
    48     1    31    1
    49     1    27    1
    50     2    32    1
    51     2    28    1
    52     4    34    1
    53     4    30    1
