@<TRIPOS>MOLECULE
*****
 50 53 0 0 0
SMALL
GASTEIGER

@<TRIPOS>ATOM
     1 C         -0.430466   -0.804984   -1.984314 C.3        1 UNL1     0.1889
     2 C         0.246439   -0.891509   -0.58995 C.3        1 UNL1     0.1342
     3 C         1.772949   -1.061255   -0.627616 C.3        1 UNL1     0.1174
     4 C         2.246486   -1.912569   -1.808355 C.3        1 UNL1     0.1456
     5 C         1.580785   -1.50397   -3.1351 C.3        1 UNL1     0.2326
     6 O         0.162578   -1.584583   -3.012381 O.3        1 UNL1     -0.3076
     7 O         2.034063   -0.233313   -3.636388 O.3        1 UNL1     -0.4605
     8 C         1.352433   0.878474   -3.175045 C.ar        1 UNL1     0.1310
     9 C         0.114453   1.324776   -3.649935 C.ar        1 UNL1     0.0226
     10 C         -0.50502   2.455546   -3.104487 C.ar        1 UNL1     0.1343
     11 C         0.087895   3.154241   -2.053717 C.ar        1 UNL1     0.1007
     12 C         1.343305   2.742387   -1.598629 C.ar        1 UNL1     0.1389
     13 C         1.967203   1.606937   -2.149024 C.ar        1 UNL1     0.0229
     14 C         -0.561221   4.305125   -1.384189 C.2        1 UNL1     0.1740
     15 C         0.111635   4.793643   -0.135123 C.3        1 UNL1     0.0520
     16 C         1.617768   4.76235   -0.355441 C.3        1 UNL1     0.1322
     17 O         2.06601   3.419638   -0.644011 O.3        1 UNL1     -0.4828
     18 C         2.118916   5.823385   -1.338182 C.ar        1 UNL1     -0.0067
     19 C         1.185282   6.584411   -2.071245 C.ar        1 UNL1     -0.0516
     20 C         1.610014   7.529616   -3.012601 C.ar        1 UNL1     -0.0198
     21 C         2.962458   7.717522   -3.23489 C.ar        1 UNL1     0.1169
     22 C         3.906339   7.007122   -2.504645 C.ar        1 UNL1     -0.0198
     23 C         3.482067   6.075037   -1.550042 C.ar        1 UNL1     -0.0516
     24 O         3.337964   8.619672   -4.18648 O.3        1 UNL1     -0.5068
     25 O         -1.623446   4.79445   -1.759322 O.2        1 UNL1     -0.2917
     26 O         -1.711466   2.839114   -3.613357 O.3        1 UNL1     -0.5058
     27 O         -0.67667   0.525255   -2.411671 O.3        1 UNL1     -0.3648
     28 O         -0.293816   -2.027926   0.109613 O.3        1 UNL1     -0.3841
     29 O         2.426019   0.208202   -0.563496 O.3        1 UNL1     -0.3863
     30 O         1.942507   -3.299518   -1.544427 O.3        1 UNL1     -0.3829
     31 H         -1.428927   -1.242257   -1.875017 H        1 UNL1     0.0937
     32 H         0.0   0.0   0.0 H        1 UNL1     0.0671
     33 H         2.074139   -1.590842   0.287011 H        1 UNL1     0.0649
     34 H         3.334633   -1.836889   -1.911354 H        1 UNL1     0.0683
     35 H         1.885397   -2.290311   -3.837068 H        1 UNL1     0.1085
     36 H         -0.423827   0.792682   -4.426628 H        1 UNL1     0.0691
     37 H         2.945037   1.307612   -1.777892 H        1 UNL1     0.0691
     38 H         -0.181952   4.126051   0.681978 H        1 UNL1     0.0385
     39 H         -0.251865   5.800225   0.0982 H        1 UNL1     0.0385
     40 H         2.090575   5.009215   0.604784 H        1 UNL1     0.0789
     41 H         0.118044   6.449145   -1.921721 H        1 UNL1     0.0623
     42 H         0.8802   8.101755   -3.580087 H        1 UNL1     0.0654
     43 H         4.968062   7.157188   -2.659999 H        1 UNL1     0.0654
     44 H         4.246904   5.545397   -0.990264 H        1 UNL1     0.0623
     45 H         2.611131   9.250509   -4.31483 H        1 UNL1     0.2921
     46 H         -2.340487   2.974822   -2.887183 H        1 UNL1     0.2922
     47 H         -0.671932   0.572807   -3.377889 H        1 UNL1     0.2126
     48 H         -0.780171   -1.676675   0.880206 H        1 UNL1     0.2101
     49 H         1.948727   0.852833   -1.109789 H        1 UNL1     0.2100
     50 H         2.60237   -3.848038   -2.017099 H        1 UNL1     0.2102
@<TRIPOS>BOND
     1     1     2    1
     2     1     6    1
     3     2     3    1
     4     3     4    1
     5     3    29    1
     6     3    33    1
     7     4     5    1
     8     5     6    1
     9     5     7    1
    10     5    35    1
    11     7     8    1
    12     8     9   ar
    13     8    13   ar
    14     9    10   ar
    15     9    36    1
    16    10    11   ar
    17    10    26    1
    18    11    12   ar
    19    11    14    1
    20    12    13   ar
    21    12    17    1
    22    13    37    1
    23    14    15    1
    24    14    25    2
    25    15    16    1
    26    15    38    1
    27    15    39    1
    28    16    17    1
    29    16    18    1
    30    16    40    1
    31    18    19   ar
    32    18    23   ar
    33    19    20   ar
    34    19    41    1
    35    20    21   ar
    36    20    42    1
    37    21    22   ar
    38    21    24    1
    39    22    23   ar
    40    22    43    1
    41    23    44    1
    42    24    45    1
    43    26    46    1
    44    27    47    1
    45    28    48    1
    46    29    49    1
    47    30    50    1
    48     1    31    1
    49     1    27    1
    50     2    32    1
    51     2    28    1
    52     4    34    1
    53     4    30    1
