@<TRIPOS>MOLECULE
*****
 50 53 0 0 0
SMALL
GASTEIGER

@<TRIPOS>ATOM
     1 C         -1.000705   -0.775417   -1.779922 C.3        1 UNL1     0.1889
     2 C         -0.977589   0.088052   -0.490028 C.3        1 UNL1     0.1342
     3 C         -2.079667   -0.247894   0.526353 C.3        1 UNL1     0.1174
     4 C         -3.392335   -0.668955   -0.139025 C.3        1 UNL1     0.1456
     5 C         -3.179755   -1.695386   -1.266683 C.3        1 UNL1     0.2326
     6 O         -2.284844   -1.166834   -2.242713 O.3        1 UNL1     -0.3076
     7 O         -2.793451   -2.997658   -0.791103 O.3        1 UNL1     -0.4605
     8 C         -3.307842   -4.075245   -1.489484 C.ar        1 UNL1     0.1310
     9 C         -4.351207   -4.014659   -2.419548 C.ar        1 UNL1     0.0226
     10 C         -4.791027   -5.162486   -3.08959 C.ar        1 UNL1     0.1343
     11 C         -4.181609   -6.395842   -2.863134 C.ar        1 UNL1     0.1007
     12 C         -3.166156   -6.476364   -1.906497 C.ar        1 UNL1     0.1389
     13 C         -2.725877   -5.322565   -1.230971 C.ar        1 UNL1     0.0229
     14 C         -4.549933   -7.624271   -3.604385 C.2        1 UNL1     0.1740
     15 C         -3.646136   -8.803821   -3.396151 C.3        1 UNL1     0.0520
     16 C         -3.261432   -8.862093   -1.924226 C.3        1 UNL1     0.1322
     17 O         -2.571092   -7.656958   -1.526546 O.3        1 UNL1     -0.4828
     18 C         -4.413783   -9.266845   -1.001736 C.ar        1 UNL1     -0.0067
     19 C         -5.189595   -8.265452   -0.382429 C.ar        1 UNL1     -0.0516
     20 C         -6.220277   -8.600576   0.50377 C.ar        1 UNL1     -0.0198
     21 C         -6.479682   -9.930245   0.783981 C.ar        1 UNL1     0.1169
     22 C         -5.754939   -10.939849   0.164073 C.ar        1 UNL1     -0.0198
     23 C         -4.736339   -10.605465   -0.736314 C.ar        1 UNL1     -0.0516
     24 O         -7.466235   -10.217242   1.681058 O.3        1 UNL1     -0.5068
     25 O         -5.480191   -7.677796   -4.404535 O.2        1 UNL1     -0.2917
     26 O         -5.813786   -5.035795   -3.983736 O.3        1 UNL1     -0.5058
     27 O         -0.100857   -1.871624   -1.742637 O.3        1 UNL1     -0.3648
     28 O         -1.144607   1.468707   -0.862323 O.3        1 UNL1     -0.3841
     29 O         -1.613435   -1.201434   1.483182 O.3        1 UNL1     -0.3863
     30 O         -4.039907   0.498401   -0.690042 O.3        1 UNL1     -0.3829
     31 H         -0.619728   -0.141176   -2.587804 H        1 UNL1     0.0937
     32 H         0.0   0.0   0.0 H        1 UNL1     0.0671
     33 H         -2.293402   0.66312   1.102626 H        1 UNL1     0.0649
     34 H         -4.07287   -1.089727   0.609456 H        1 UNL1     0.0683
     35 H         -4.164504   -1.771025   -1.744623 H        1 UNL1     0.1085
     36 H         -4.828325   -3.076491   -2.68093 H        1 UNL1     0.0691
     37 H         -1.934395   -5.412134   -0.490008 H        1 UNL1     0.0691
     38 H         -2.764111   -8.66111   -4.029549 H        1 UNL1     0.0385
     39 H         -4.160612   -9.712847   -3.725945 H        1 UNL1     0.0385
     40 H         -2.510619   -9.656651   -1.817094 H        1 UNL1     0.0789
     41 H         -4.999831   -7.214224   -0.578796 H        1 UNL1     0.0623
     42 H         -6.803638   -7.818946   0.98414 H        1 UNL1     0.0654
     43 H         -5.959667   -11.984699   0.364786 H        1 UNL1     0.0654
     44 H         -4.197337   -11.420041   -1.210431 H        1 UNL1     0.0623
     45 H         -7.623809   -9.429352   2.226143 H        1 UNL1     0.2921
     46 H         -6.22218   -4.161074   -3.886323 H        1 UNL1     0.2922
     47 H         -0.530966   -2.644696   -1.351196 H        1 UNL1     0.2126
     48 H         -0.320758   1.738809   -1.311823 H        1 UNL1     0.2101
     49 H         -2.321545   -1.830649   1.694045 H        1 UNL1     0.2100
     50 H         -3.529229   1.286447   -0.410929 H        1 UNL1     0.2102
@<TRIPOS>BOND
     1     1     2    1
     2     1     6    1
     3     2     3    1
     4     3     4    1
     5     3    29    1
     6     3    33    1
     7     4     5    1
     8     5     6    1
     9     5     7    1
    10     5    35    1
    11     7     8    1
    12     8     9   ar
    13     8    13   ar
    14     9    10   ar
    15     9    36    1
    16    10    11   ar
    17    10    26    1
    18    11    12   ar
    19    11    14    1
    20    12    13   ar
    21    12    17    1
    22    13    37    1
    23    14    15    1
    24    14    25    2
    25    15    16    1
    26    15    38    1
    27    15    39    1
    28    16    17    1
    29    16    18    1
    30    16    40    1
    31    18    19   ar
    32    18    23   ar
    33    19    20   ar
    34    19    41    1
    35    20    21   ar
    36    20    42    1
    37    21    22   ar
    38    21    24    1
    39    22    23   ar
    40    22    43    1
    41    23    44    1
    42    24    45    1
    43    26    46    1
    44    27    47    1
    45    28    48    1
    46    29    49    1
    47    30    50    1
    48     1    31    1
    49     1    27    1
    50     2    32    1
    51     2    28    1
    52     4    34    1
    53     4    30    1
