@<TRIPOS>MOLECULE
*****
 50 53 0 0 0
SMALL
GASTEIGER

@<TRIPOS>ATOM
     1 C         -0.350923   -1.338743   1.6898 C.3        1 UNL1     0.1889
     2 C         -0.471899   -0.972765   0.186016 C.3        1 UNL1     0.1342
     3 C         -1.9103   -0.943197   -0.353049 C.3        1 UNL1     0.1174
     4 C         -2.80873   -1.999725   0.294786 C.3        1 UNL1     0.1456
     5 C         -2.663818   -2.038527   1.827058 C.3        1 UNL1     0.2326
     6 O         -1.302397   -2.271491   2.180795 O.3        1 UNL1     -0.3076
     7 O         -3.23131   -0.891606   2.485728 O.3        1 UNL1     -0.4605
     8 C         -3.755295   -1.114195   3.746451 C.ar        1 UNL1     0.1310
     9 C         -4.587563   -2.181309   4.101268 C.ar        1 UNL1     0.0226
     10 C         -5.054384   -2.330021   5.412705 C.ar        1 UNL1     0.1343
     11 C         -4.68054   -1.427562   6.407517 C.ar        1 UNL1     0.1007
     12 C         -3.883204   -0.334976   6.056386 C.ar        1 UNL1     0.1389
     13 C         -3.416105   -0.184203   4.737099 C.ar        1 UNL1     0.0229
     14 C         -5.076125   -1.583682   7.826422 C.2        1 UNL1     0.1740
     15 C         -4.405047   -0.653311   8.793694 C.3        1 UNL1     0.0520
     16 C         -4.31363   0.7245   8.152416 C.3        1 UNL1     0.1322
     17 O         -3.544364   0.671481   6.930742 O.3        1 UNL1     -0.4828
     18 C         -5.663475   1.434134   8.021796 C.ar        1 UNL1     -0.0067
     19 C         -6.016863   2.029557   6.793463 C.ar        1 UNL1     -0.0516
     20 C         -7.222694   2.727019   6.65389 C.ar        1 UNL1     -0.0198
     21 C         -8.078392   2.842192   7.734789 C.ar        1 UNL1     0.1169
     22 C         -7.773645   2.238242   8.947725 C.ar        1 UNL1     -0.0198
     23 C         -6.576448   1.52503   9.082274 C.ar        1 UNL1     -0.0516
     24 O         -9.226045   3.561078   7.572015 O.3        1 UNL1     -0.5068
     25 O         -5.838966   -2.460739   8.223071 O.2        1 UNL1     -0.2917
     26 O         -5.863862   -3.391956   5.693102 O.3        1 UNL1     -0.5058
     27 O         -0.239075   -0.208185   2.539574 O.3        1 UNL1     -0.3648
     28 O         0.253138   -1.951597   -0.581391 O.3        1 UNL1     -0.3841
     29 O         -2.456384   0.374688   -0.268763 O.3        1 UNL1     -0.3863
     30 O         -2.470531   -3.299392   -0.236418 O.3        1 UNL1     -0.3829
     31 H         0.604644   -1.861067   1.808746 H        1 UNL1     0.0937
     32 H         0.0   0.0   0.0 H        1 UNL1     0.0671
     33 H         -1.87089   -1.174578   -1.426655 H        1 UNL1     0.0649
     34 H         -3.856137   -1.810022   0.035262 H        1 UNL1     0.0683
     35 H         -3.227745   -2.93181   2.123555 H        1 UNL1     0.1085
     36 H         -4.868506   -2.947322   3.386833 H        1 UNL1     0.0691
     37 H         -2.797593   0.675716   4.489156 H        1 UNL1     0.0691
     38 H         -3.409289   -1.057348   9.005231 H        1 UNL1     0.0385
     39 H         -4.973675   -0.63744   9.729743 H        1 UNL1     0.0385
     40 H         -3.717377   1.355734   8.825132 H        1 UNL1     0.0789
     41 H         -5.358113   1.961157   5.932638 H        1 UNL1     0.0623
     42 H         -7.478395   3.191904   5.704937 H        1 UNL1     0.0654
     43 H         -8.443577   2.309423   9.796274 H        1 UNL1     0.0654
     44 H         -6.375379   1.056997   10.041107 H        1 UNL1     0.0623
     45 H         -8.9864   4.473862   7.343733 H        1 UNL1     0.2921
     46 H         -5.473387   -3.915879   6.410351 H        1 UNL1     0.2922
     47 H         0.504063   0.346128   2.263273 H        1 UNL1     0.2126
     48 H         1.192147   -1.867087   -0.32673 H        1 UNL1     0.2101
     49 H         -2.015514   0.956131   -0.908569 H        1 UNL1     0.2100
     50 H         -2.705135   -3.306732   -1.187534 H        1 UNL1     0.2102
@<TRIPOS>BOND
     1     1     2    1
     2     1     6    1
     3     2     3    1
     4     3     4    1
     5     3    29    1
     6     3    33    1
     7     4     5    1
     8     5     6    1
     9     5     7    1
    10     5    35    1
    11     7     8    1
    12     8     9   ar
    13     8    13   ar
    14     9    10   ar
    15     9    36    1
    16    10    11   ar
    17    10    26    1
    18    11    12   ar
    19    11    14    1
    20    12    13   ar
    21    12    17    1
    22    13    37    1
    23    14    15    1
    24    14    25    2
    25    15    16    1
    26    15    38    1
    27    15    39    1
    28    16    17    1
    29    16    18    1
    30    16    40    1
    31    18    19   ar
    32    18    23   ar
    33    19    20   ar
    34    19    41    1
    35    20    21   ar
    36    20    42    1
    37    21    22   ar
    38    21    24    1
    39    22    23   ar
    40    22    43    1
    41    23    44    1
    42    24    45    1
    43    26    46    1
    44    27    47    1
    45    28    48    1
    46    29    49    1
    47    30    50    1
    48     1    31    1
    49     1    27    1
    50     2    32    1
    51     2    28    1
    52     4    34    1
    53     4    30    1
