@<TRIPOS>MOLECULE
*****
 50 53 0 0 0
SMALL
GASTEIGER

@<TRIPOS>ATOM
     1 C         -2.053015   -0.704896   0.243011 C.3        1 UNL1     0.1889
     2 C         -0.709547   -0.180073   0.817116 C.3        1 UNL1     0.1342
     3 C         -0.053118   -1.101125   1.856937 C.3        1 UNL1     0.1174
     4 C         -1.074855   -1.830072   2.733183 C.3        1 UNL1     0.1456
     5 C         -2.221185   -2.449005   1.912687 C.3        1 UNL1     0.2326
     6 O         -2.869567   -1.438245   1.144031 O.3        1 UNL1     -0.3076
     7 O         -1.815559   -3.584532   1.12696 O.3        1 UNL1     -0.4605
     8 C         -2.567607   -3.837438   -0.006173 C.ar        1 UNL1     0.1310
     9 C         -2.188176   -4.675516   -1.060193 C.ar        1 UNL1     0.0226
     10 C         -3.029512   -4.881323   -2.160057 C.ar        1 UNL1     0.1343
     11 C         -4.282087   -4.272114   -2.221386 C.ar        1 UNL1     0.1007
     12 C         -4.654876   -3.40079   -1.194445 C.ar        1 UNL1     0.1389
     13 C         -3.807627   -3.191948   -0.089916 C.ar        1 UNL1     0.0229
     14 C         -5.245409   -4.520266   -3.318922 C.2        1 UNL1     0.1740
     15 C         -6.622814   -3.961984   -3.112463 C.3        1 UNL1     0.0520
     16 C         -6.494007   -2.583446   -2.479219 C.3        1 UNL1     0.1322
     17 O         -5.817391   -2.665464   -1.205431 O.3        1 UNL1     -0.4828
     18 C         -5.9349   -1.519725   -3.427175 C.ar        1 UNL1     -0.0067
     19 C         -6.768642   -0.974119   -4.424874 C.ar        1 UNL1     -0.0516
     20 C         -6.275728   -0.034412   -5.338082 C.ar        1 UNL1     -0.0198
     21 C         -4.951975   0.36146   -5.268866 C.ar        1 UNL1     0.1169
     22 C         -4.115165   -0.132813   -4.276756 C.ar        1 UNL1     -0.0198
     23 C         -4.612717   -1.058675   -3.351944 C.ar        1 UNL1     -0.0516
     24 O         -4.497561   1.249936   -6.198661 O.3        1 UNL1     -0.5068
     25 O         -4.984521   -5.202886   -4.306066 O.2        1 UNL1     -0.2917
     26 O         -2.599722   -5.709806   -3.155286 O.3        1 UNL1     -0.5058
     27 O         -1.91368   -1.373646   -1.000429 O.3        1 UNL1     -0.3648
     28 O         -0.951119   1.086139   1.458253 O.3        1 UNL1     -0.3841
     29 O         0.874968   -1.990432   1.2325 O.3        1 UNL1     -0.3863
     30 O         -1.634984   -0.897704   3.683255 O.3        1 UNL1     -0.3829
     31 H         -2.658809   0.177175   0.008394 H        1 UNL1     0.0937
     32 H         0.0   0.0   0.0 H        1 UNL1     0.0671
     33 H         0.550264   -0.473437   2.527503 H        1 UNL1     0.0649
     34 H         -0.577945   -2.617062   3.31122 H        1 UNL1     0.0683
     35 H         -2.939736   -2.782544   2.671841 H        1 UNL1     0.1085
     36 H         -1.251359   -5.221665   -1.04556 H        1 UNL1     0.0691
     37 H         -4.120628   -2.507868   0.695932 H        1 UNL1     0.0691
     38 H         -7.163799   -4.650051   -2.454112 H        1 UNL1     0.0385
     39 H         -7.144479   -3.928365   -4.075019 H        1 UNL1     0.0385
     40 H         -7.508998   -2.245723   -2.229703 H        1 UNL1     0.0789
     41 H         -7.80899   -1.275383   -4.505909 H        1 UNL1     0.0623
     42 H         -6.925433   0.370062   -6.110284 H        1 UNL1     0.0654
     43 H         -3.080899   0.181715   -4.204119 H        1 UNL1     0.0654
     44 H         -3.933798   -1.415998   -2.583677 H        1 UNL1     0.0623
     45 H         -4.820076   0.972389   -7.071397 H        1 UNL1     0.2921
     46 H         -3.306953   -5.82326   -3.809781 H        1 UNL1     0.2922
     47 H         -1.428086   -0.818621   -1.626533 H        1 UNL1     0.2126
     48 H         -1.106606   1.735386   0.745488 H        1 UNL1     0.2101
     49 H         0.395614   -2.695659   0.769177 H        1 UNL1     0.2100
     50 H         -0.924918   -0.639542   4.30685 H        1 UNL1     0.2102
@<TRIPOS>BOND
     1     1     2    1
     2     1     6    1
     3     2     3    1
     4     3     4    1
     5     3    29    1
     6     3    33    1
     7     4     5    1
     8     5     6    1
     9     5     7    1
    10     5    35    1
    11     7     8    1
    12     8     9   ar
    13     8    13   ar
    14     9    10   ar
    15     9    36    1
    16    10    11   ar
    17    10    26    1
    18    11    12   ar
    19    11    14    1
    20    12    13   ar
    21    12    17    1
    22    13    37    1
    23    14    15    1
    24    14    25    2
    25    15    16    1
    26    15    38    1
    27    15    39    1
    28    16    17    1
    29    16    18    1
    30    16    40    1
    31    18    19   ar
    32    18    23   ar
    33    19    20   ar
    34    19    41    1
    35    20    21   ar
    36    20    42    1
    37    21    22   ar
    38    21    24    1
    39    22    23   ar
    40    22    43    1
    41    23    44    1
    42    24    45    1
    43    26    46    1
    44    27    47    1
    45    28    48    1
    46    29    49    1
    47    30    50    1
    48     1    31    1
    49     1    27    1
    50     2    32    1
    51     2    28    1
    52     4    34    1
    53     4    30    1
