@<TRIPOS>MOLECULE
*****
 50 53 0 0 0
SMALL
GASTEIGER

@<TRIPOS>ATOM
     1 C         -0.297446   -1.312881   1.720079 C.3        1 UNL1     0.1889
     2 C         -0.44394   -0.98086   0.210695 C.3        1 UNL1     0.1342
     3 C         -1.888225   -1.000112   -0.312884 C.3        1 UNL1     0.1174
     4 C         -2.751429   -2.066522   0.365913 C.3        1 UNL1     0.1456
     5 C         -2.589386   -2.070338   1.896955 C.3        1 UNL1     0.2326
     6 O         -1.218609   -2.260164   2.240184 O.3        1 UNL1     -0.3076
     7 O         -3.180125   -0.925591   2.53875 O.3        1 UNL1     -0.4605
     8 C         -3.677913   -1.134378   3.812384 C.ar        1 UNL1     0.1310
     9 C         -4.472937   -2.216789   4.204336 C.ar        1 UNL1     0.0226
     10 C         -4.914982   -2.348931   5.526091 C.ar        1 UNL1     0.1343
     11 C         -4.552559   -1.413479   6.494295 C.ar        1 UNL1     0.1007
     12 C         -3.79314   -0.306543   6.106017 C.ar        1 UNL1     0.1389
     13 C         -3.350998   -0.172512   4.776365 C.ar        1 UNL1     0.0229
     14 C         -4.921539   -1.548498   7.922503 C.2        1 UNL1     0.1740
     15 C         -4.263287   -0.577161   8.857787 C.3        1 UNL1     0.0520
     16 C         -4.222234   0.787687   8.184391 C.3        1 UNL1     0.1322
     17 O         -3.470606   0.729065   6.952041 O.3        1 UNL1     -0.4828
     18 C         -5.594184   1.454689   8.059542 C.ar        1 UNL1     -0.0067
     19 C         -5.989805   1.998125   6.820036 C.ar        1 UNL1     -0.0516
     20 C         -7.217668   2.656668   6.683522 C.ar        1 UNL1     -0.0198
     21 C         -8.053701   2.784538   7.778294 C.ar        1 UNL1     0.1169
     22 C         -7.706768   2.230708   9.003753 C.ar        1 UNL1     -0.0198
     23 C         -6.487188   1.556021   9.135957 C.ar        1 UNL1     -0.0516
     24 O         -9.224515   3.465315   7.616624 O.3        1 UNL1     -0.5068
     25 O         -5.652111   -2.438009   8.350896 O.2        1 UNL1     -0.2917
     26 O         -5.688523   -3.427208   5.84317 O.3        1 UNL1     -0.5058
     27 O         -0.206672   -0.16273   2.545729 O.3        1 UNL1     -0.3648
     28 O         0.298675   -1.955678   -0.544925 O.3        1 UNL1     -0.3841
     29 O         -2.468157   0.304391   -0.248987 O.3        1 UNL1     -0.3863
     30 O         -2.384493   -3.367372   -0.142848 O.3        1 UNL1     -0.3829
     31 H         0.672843   -1.807358   1.838876 H        1 UNL1     0.0937
     32 H         0.0   0.0   0.0 H        1 UNL1     0.0671
     33 H         -1.854015   -1.252154   -1.382008 H        1 UNL1     0.0649
     34 H         -3.806178   -1.909756   0.114259 H        1 UNL1     0.0683
     35 H         -3.12626   -2.971936   2.217527 H        1 UNL1     0.1085
     36 H         -4.742208   -3.006777   3.511853 H        1 UNL1     0.0691
     37 H         -2.761887   0.699088   4.499318 H        1 UNL1     0.0691
     38 H         -3.252961   -0.947194   9.062346 H        1 UNL1     0.0385
     39 H         -4.817685   -0.556376   9.802239 H        1 UNL1     0.0385
     40 H         -3.634508   1.451181   8.833139 H        1 UNL1     0.0789
     41 H         -5.347366   1.91896   5.94788 H        1 UNL1     0.0623
     42 H         -7.506146   3.081867   5.7254 H        1 UNL1     0.0654
     43 H         -8.360714   2.311926   9.863792 H        1 UNL1     0.0654
     44 H         -6.253013   1.126492   10.105242 H        1 UNL1     0.0623
     45 H         -9.015836   4.375577   7.350928 H        1 UNL1     0.2921
     46 H         -5.271157   -3.923808   6.564699 H        1 UNL1     0.2922
     47 H         0.522897   0.401821   2.254401 H        1 UNL1     0.2126
     48 H         1.234566   -1.858508   -0.283395 H        1 UNL1     0.2101
     49 H         -2.043911   0.886371   -0.899455 H        1 UNL1     0.2100
     50 H         -2.623662   -3.398215   -1.092353 H        1 UNL1     0.2102
@<TRIPOS>BOND
     1     1     2    1
     2     1     6    1
     3     2     3    1
     4     3     4    1
     5     3    29    1
     6     3    33    1
     7     4     5    1
     8     5     6    1
     9     5     7    1
    10     5    35    1
    11     7     8    1
    12     8     9   ar
    13     8    13   ar
    14     9    10   ar
    15     9    36    1
    16    10    11   ar
    17    10    26    1
    18    11    12   ar
    19    11    14    1
    20    12    13   ar
    21    12    17    1
    22    13    37    1
    23    14    15    1
    24    14    25    2
    25    15    16    1
    26    15    38    1
    27    15    39    1
    28    16    17    1
    29    16    18    1
    30    16    40    1
    31    18    19   ar
    32    18    23   ar
    33    19    20   ar
    34    19    41    1
    35    20    21   ar
    36    20    42    1
    37    21    22   ar
    38    21    24    1
    39    22    23   ar
    40    22    43    1
    41    23    44    1
    42    24    45    1
    43    26    46    1
    44    27    47    1
    45    28    48    1
    46    29    49    1
    47    30    50    1
    48     1    31    1
    49     1    27    1
    50     2    32    1
    51     2    28    1
    52     4    34    1
    53     4    30    1
