@<TRIPOS>MOLECULE
*****
 50 53 0 0 0
SMALL
GASTEIGER

@<TRIPOS>ATOM
     1 C         -0.336522   -1.330095   1.69953 C.3        1 UNL1     0.1889
     2 C         -0.464939   -0.974584   0.193854 C.3        1 UNL1     0.1342
     3 C         -1.90531   -0.957799   -0.340481 C.3        1 UNL1     0.1174
     4 C         -2.794668   -2.015936   0.317171 C.3        1 UNL1     0.1456
     5 C         -2.644345   -2.043946   1.849158 C.3        1 UNL1     0.2326
     6 O         -1.280255   -2.265809   2.199734 O.3        1 UNL1     -0.3076
     7 O         -3.217055   -0.896512   2.502396 O.3        1 UNL1     -0.4605
     8 C         -3.728113   -1.112619   3.769537 C.ar        1 UNL1     0.1310
     9 C         -4.547149   -2.184274   4.14107 C.ar        1 UNL1     0.0226
     10 C         -5.001315   -2.325512   5.457765 C.ar        1 UNL1     0.1343
     11 C         -4.627573   -1.410616   6.441189 C.ar        1 UNL1     0.1007
     12 C         -3.843677   -0.313787   6.073416 C.ar        1 UNL1     0.1389
     13 C         -3.389319   -0.170555   4.74885 C.ar        1 UNL1     0.0229
     14 C         -5.00952   -1.557619   7.864797 C.2        1 UNL1     0.1740
     15 C         -4.339068   -0.612262   8.817866 C.3        1 UNL1     0.0520
     16 C         -4.266222   0.760495   8.163505 C.3        1 UNL1     0.1322
     17 O         -3.506952   0.703681   6.935762 O.3        1 UNL1     -0.4828
     18 C         -5.623811   1.456174   8.038184 C.ar        1 UNL1     -0.0067
     19 C         -6.000802   2.02162   6.802723 C.ar        1 UNL1     -0.0516
     20 C         -7.214433   2.706096   6.666505 C.ar        1 UNL1     -0.0198
     21 C         -8.054557   2.838056   7.757653 C.ar        1 UNL1     0.1169
     22 C         -7.726363   2.263354   8.978655 C.ar        1 UNL1     -0.0198
     23 C         -6.521309   1.562953   9.110327 C.ar        1 UNL1     -0.0516
     24 O         -9.210552   3.543911   7.596881 O.3        1 UNL1     -0.5068
     25 O         -5.760582   -2.4382   8.275855 O.2        1 UNL1     -0.2917
     26 O         -5.798247   -3.392447   5.754641 O.3        1 UNL1     -0.5058
     27 O         -0.22916   -0.193397   2.541656 O.3        1 UNL1     -0.3648
     28 O         0.263853   -1.953615   -0.569734 O.3        1 UNL1     -0.3841
     29 O         -2.459658   0.357037   -0.262779 O.3        1 UNL1     -0.3863
     30 O         -2.449824   -3.316774   -0.206845 O.3        1 UNL1     -0.3829
     31 H         0.622814   -1.845444   1.818561 H        1 UNL1     0.0937
     32 H         0.0   0.0   0.0 H        1 UNL1     0.0671
     33 H         -1.868015   -1.195817   -1.41271 H        1 UNL1     0.0649
     34 H         -3.844154   -1.834692   0.060011 H        1 UNL1     0.0683
     35 H         -3.201455   -2.938937   2.153293 H        1 UNL1     0.1085
     36 H         -4.826898   -2.959327   3.435978 H        1 UNL1     0.0691
     37 H         -2.781142   0.692874   4.487884 H        1 UNL1     0.0691
     38 H         -3.337748   -1.004972   9.024416 H        1 UNL1     0.0385
     39 H         -4.899803   -0.593285   9.758608 H        1 UNL1     0.0385
     40 H         -3.670264   1.403373   8.825368 H        1 UNL1     0.0789
     41 H         -5.354646   1.939661   5.933576 H        1 UNL1     0.0623
     42 H         -7.488411   3.147961   5.711673 H        1 UNL1     0.0654
     43 H         -8.383908   2.347734   9.835641 H        1 UNL1     0.0654
     44 H         -6.301778   1.117717   10.075944 H        1 UNL1     0.0623
     45 H         -8.982327   4.451006   7.33648 H        1 UNL1     0.2921
     46 H         -5.395365   -3.907668   6.471331 H        1 UNL1     0.2922
     47 H         0.515471   0.358888   2.265311 H        1 UNL1     0.2126
     48 H         1.19652   -1.891182   -0.28695 H        1 UNL1     0.2101
     49 H         -2.299243   0.832435   -1.093476 H        1 UNL1     0.2100
     50 H         -2.682353   -3.329831   -1.158408 H        1 UNL1     0.2102
@<TRIPOS>BOND
     1     1     2    1
     2     1     6    1
     3     2     3    1
     4     3     4    1
     5     3    29    1
     6     3    33    1
     7     4     5    1
     8     5     6    1
     9     5     7    1
    10     5    35    1
    11     7     8    1
    12     8     9   ar
    13     8    13   ar
    14     9    10   ar
    15     9    36    1
    16    10    11   ar
    17    10    26    1
    18    11    12   ar
    19    11    14    1
    20    12    13   ar
    21    12    17    1
    22    13    37    1
    23    14    15    1
    24    14    25    2
    25    15    16    1
    26    15    38    1
    27    15    39    1
    28    16    17    1
    29    16    18    1
    30    16    40    1
    31    18    19   ar
    32    18    23   ar
    33    19    20   ar
    34    19    41    1
    35    20    21   ar
    36    20    42    1
    37    21    22   ar
    38    21    24    1
    39    22    23   ar
    40    22    43    1
    41    23    44    1
    42    24    45    1
    43    26    46    1
    44    27    47    1
    45    28    48    1
    46    29    49    1
    47    30    50    1
    48     1    31    1
    49     1    27    1
    50     2    32    1
    51     2    28    1
    52     4    34    1
    53     4    30    1
