@<TRIPOS>MOLECULE
*****
 50 53 0 0 0
SMALL
GASTEIGER

@<TRIPOS>ATOM
     1 C         -0.144916   0.898803   1.985436 C.3        1 UNL1     0.1889
     2 C         0.356303   -0.206058   1.016932 C.3        1 UNL1     0.1342
     3 C         -0.048568   -1.635111   1.409811 C.3        1 UNL1     0.1174
     4 C         -0.084021   -1.846451   2.925461 C.3        1 UNL1     0.1456
     5 C         -0.817652   -0.711259   3.662679 C.3        1 UNL1     0.2326
     6 O         -0.206812   0.540529   3.358099 O.3        1 UNL1     -0.3076
     7 O         -2.240679   -0.713731   3.447479 O.3        1 UNL1     -0.4605
     8 C         -3.013695   -0.256681   4.499658 C.ar        1 UNL1     0.1310
     9 C         -2.852016   -0.619097   5.841229 C.ar        1 UNL1     0.0226
     10 C         -3.677179   -0.086979   6.839157 C.ar        1 UNL1     0.1343
     11 C         -4.669625   0.839612   6.522425 C.ar        1 UNL1     0.1007
     12 C         -4.86747   1.178056   5.181121 C.ar        1 UNL1     0.1389
     13 C         -4.039366   0.640862   4.177578 C.ar        1 UNL1     0.0229
     14 C         -5.514336   1.496665   7.546582 C.2        1 UNL1     0.1740
     15 C         -6.371799   2.625365   7.054299 C.3        1 UNL1     0.0520
     16 C         -6.943027   2.239805   5.696728 C.3        1 UNL1     0.1322
     17 O         -5.883713   1.996227   4.745101 O.3        1 UNL1     -0.4828
     18 C         -8.001144   1.135936   5.764442 C.ar        1 UNL1     -0.0067
     19 C         -7.917679   0.041387   4.87945 C.ar        1 UNL1     -0.0516
     20 C         -8.894846   -0.961158   4.882751 C.ar        1 UNL1     -0.0198
     21 C         -9.961914   -0.877066   5.759177 C.ar        1 UNL1     0.1169
     22 C         -10.053934   0.171176   6.665577 C.ar        1 UNL1     -0.0198
     23 C         -9.067114   1.164228   6.675102 C.ar        1 UNL1     -0.0516
     24 O         -10.914156   -1.852245   5.707599 O.3        1 UNL1     -0.5068
     25 O         -5.47529   1.210399   8.740321 O.2        1 UNL1     -0.2917
     26 O         -3.468138   -0.482283   8.128196 O.3        1 UNL1     -0.5058
     27 O         -1.340712   1.528754   1.554135 O.3        1 UNL1     -0.3648
     28 O         1.794901   -0.162925   0.981128 O.3        1 UNL1     -0.3841
     29 O         -1.270129   -2.010049   0.770013 O.3        1 UNL1     -0.3863
     30 O         1.26889   -1.925629   3.424511 O.3        1 UNL1     -0.3829
     31 H         0.604101   1.697892   1.962893 H        1 UNL1     0.0937
     32 H         0.0   0.0   0.0 H        1 UNL1     0.0671
     33 H         0.712066   -2.320772   1.011033 H        1 UNL1     0.0649
     34 H         -0.568104   -2.801261   3.158703 H        1 UNL1     0.0683
     35 H         -0.619794   -0.913139   4.722856 H        1 UNL1     0.1085
     36 H         -2.062879   -1.291674   6.159073 H        1 UNL1     0.0691
     37 H         -4.214696   0.919509   3.140704 H        1 UNL1     0.0691
     38 H         -5.73691   3.514497   6.977568 H        1 UNL1     0.0385
     39 H         -7.156422   2.827899   7.79127 H        1 UNL1     0.0385
     40 H         -7.467523   3.121396   5.304018 H        1 UNL1     0.0789
     41 H         -7.094811   -0.042902   4.17558 H        1 UNL1     0.0623
     42 H         -8.825649   -1.793971   4.187305 H        1 UNL1     0.0654
     43 H         -10.877349   0.238896   7.366513 H        1 UNL1     0.0654
     44 H         -9.165112   1.963079   7.403854 H        1 UNL1     0.0623
     45 H         -11.330833   -1.827966   4.830953 H        1 UNL1     0.2921
     46 H         -3.307476   0.296946   8.683535 H        1 UNL1     0.2922
     47 H         -1.232387   1.874219   0.65704 H        1 UNL1     0.2126
     48 H         2.039384   0.702737   0.600879 H        1 UNL1     0.2101
     49 H         -1.122564   -2.123333   -0.18245 H        1 UNL1     0.2100
     50 H         1.67823   -2.736963   3.058601 H        1 UNL1     0.2102
@<TRIPOS>BOND
     1     1     2    1
     2     1     6    1
     3     2     3    1
     4     3     4    1
     5     3    29    1
     6     3    33    1
     7     4     5    1
     8     5     6    1
     9     5     7    1
    10     5    35    1
    11     7     8    1
    12     8     9   ar
    13     8    13   ar
    14     9    10   ar
    15     9    36    1
    16    10    11   ar
    17    10    26    1
    18    11    12   ar
    19    11    14    1
    20    12    13   ar
    21    12    17    1
    22    13    37    1
    23    14    15    1
    24    14    25    2
    25    15    16    1
    26    15    38    1
    27    15    39    1
    28    16    17    1
    29    16    18    1
    30    16    40    1
    31    18    19   ar
    32    18    23   ar
    33    19    20   ar
    34    19    41    1
    35    20    21   ar
    36    20    42    1
    37    21    22   ar
    38    21    24    1
    39    22    23   ar
    40    22    43    1
    41    23    44    1
    42    24    45    1
    43    26    46    1
    44    27    47    1
    45    28    48    1
    46    29    49    1
    47    30    50    1
    48     1    31    1
    49     1    27    1
    50     2    32    1
    51     2    28    1
    52     4    34    1
    53     4    30    1
