@<TRIPOS>MOLECULE
*****
 50 53 0 0 0
SMALL
GASTEIGER

@<TRIPOS>ATOM
     1 C         -0.29112   -1.361299   1.683128 C.3        1 UNL1     0.1889
     2 C         -0.452767   -0.981713   0.186557 C.3        1 UNL1     0.1342
     3 C         -1.903684   -0.968518   -0.318548 C.3        1 UNL1     0.1174
     4 C         -2.770741   -2.045247   0.338707 C.3        1 UNL1     0.1456
     5 C         -2.589406   -2.097641   1.866692 C.3        1 UNL1     0.2326
     6 O         -1.216731   -2.313459   2.186149 O.3        1 UNL1     -0.3076
     7 O         -3.158452   -0.966361   2.550587 O.3        1 UNL1     -0.4605
     8 C         -3.642092   -1.208138   3.823836 C.ar        1 UNL1     0.1310
     9 C         -4.444485   -2.29297   4.193437 C.ar        1 UNL1     0.0226
     10 C         -4.870878   -2.460227   5.516356 C.ar        1 UNL1     0.1343
     11 C         -4.485108   -1.558734   6.507483 C.ar        1 UNL1     0.1007
     12 C         -3.717981   -0.449101   6.142769 C.ar        1 UNL1     0.1389
     13 C         -3.291572   -0.279717   4.812012 C.ar        1 UNL1     0.0229
     14 C         -4.8371   -1.73292   7.935739 C.2        1 UNL1     0.1740
     15 C         -4.155556   -0.797877   8.891113 C.3        1 UNL1     0.0520
     16 C         -4.107386   0.586246   8.258784 C.3        1 UNL1     0.1322
     17 O         -3.372514   0.556653   7.015338 O.3        1 UNL1     -0.4828
     18 C         -5.473001   1.272074   8.172404 C.ar        1 UNL1     -0.0067
     19 C         -5.879487   1.854858   6.954477 C.ar        1 UNL1     -0.0516
     20 C         -7.101302   2.530922   6.85414 C.ar        1 UNL1     -0.0198
     21 C         -7.920386   2.637235   7.963926 C.ar        1 UNL1     0.1169
     22 C         -7.562898   2.045013   9.168216 C.ar        1 UNL1     -0.0198
     23 C         -6.349615   1.353029   9.263911 C.ar        1 UNL1     -0.0516
     24 O         -9.085252   3.335587   7.838255 O.3        1 UNL1     -0.5068
     25 O         -5.572341   -2.626783   8.346732 O.2        1 UNL1     -0.2917
     26 O         -5.652714   -3.538895   5.810964 O.3        1 UNL1     -0.5058
     27 O         -0.176366   -0.237994   2.542083 O.3        1 UNL1     -0.3648
     28 O         0.268694   -1.941409   -0.607913 O.3        1 UNL1     -0.3841
     29 O         -2.46735   0.339949   -0.207522 O.3        1 UNL1     -0.3863
     30 O         -2.425622   -3.334058   -0.214059 O.3        1 UNL1     -0.3829
     31 H         0.6747   -1.870193   1.774228 H        1 UNL1     0.0937
     32 H         0.0   0.0   0.0 H        1 UNL1     0.0671
     33 H         -1.885969   -1.188183   -1.395188 H        1 UNL1     0.0649
     34 H         -3.826668   -1.868867   0.105664 H        1 UNL1     0.0683
     35 H         -3.13277   -3.002428   2.166682 H        1 UNL1     0.1085
     36 H         -4.731858   -3.058494   3.481039 H        1 UNL1     0.0691
     37 H         -2.69602   0.593235   4.553622 H        1 UNL1     0.0691
     38 H         -3.14703   -1.185257   9.070942 H        1 UNL1     0.0385
     39 H         -4.697396   -0.79957   9.843051 H        1 UNL1     0.0385
     40 H         -3.503642   1.2231   8.919413 H        1 UNL1     0.0789
     41 H         -5.250279   1.793124   6.071337 H        1 UNL1     0.0623
     42 H         -7.398121   2.986337   5.912594 H        1 UNL1     0.0654
     43 H         -8.203757   2.109273   10.039469 H        1 UNL1     0.0654
     44 H         -6.106986   0.893587   10.217268 H        1 UNL1     0.0623
     45 H         -8.869862   4.249166   7.589867 H        1 UNL1     0.2921
     46 H         -5.231831   -4.061828   6.511542 H        1 UNL1     0.2922
     47 H         0.557796   0.325405   2.26022 H        1 UNL1     0.2126
     48 H         1.206466   -1.874857   -0.34355 H        1 UNL1     0.2101
     49 H         -2.044414   0.936683   -0.845352 H        1 UNL1     0.2100
     50 H         -2.677126   -3.333177   -1.160874 H        1 UNL1     0.2102
@<TRIPOS>BOND
     1     1     2    1
     2     1     6    1
     3     2     3    1
     4     3     4    1
     5     3    29    1
     6     3    33    1
     7     4     5    1
     8     5     6    1
     9     5     7    1
    10     5    35    1
    11     7     8    1
    12     8     9   ar
    13     8    13   ar
    14     9    10   ar
    15     9    36    1
    16    10    11   ar
    17    10    26    1
    18    11    12   ar
    19    11    14    1
    20    12    13   ar
    21    12    17    1
    22    13    37    1
    23    14    15    1
    24    14    25    2
    25    15    16    1
    26    15    38    1
    27    15    39    1
    28    16    17    1
    29    16    18    1
    30    16    40    1
    31    18    19   ar
    32    18    23   ar
    33    19    20   ar
    34    19    41    1
    35    20    21   ar
    36    20    42    1
    37    21    22   ar
    38    21    24    1
    39    22    23   ar
    40    22    43    1
    41    23    44    1
    42    24    45    1
    43    26    46    1
    44    27    47    1
    45    28    48    1
    46    29    49    1
    47    30    50    1
    48     1    31    1
    49     1    27    1
    50     2    32    1
    51     2    28    1
    52     4    34    1
    53     4    30    1
