@<TRIPOS>MOLECULE
*****
 50 53 0 0 0
SMALL
GASTEIGER

@<TRIPOS>ATOM
     1 C         0.322536   -0.631703   2.065848 C.3        1 UNL1     0.1889
     2 C         0.016367   -0.934551   0.574377 C.3        1 UNL1     0.1342
     3 C         -1.295947   -1.69546   0.330832 C.3        1 UNL1     0.1174
     4 C         -1.61312   -2.701755   1.439835 C.3        1 UNL1     0.1456
     5 C         -1.430929   -2.105568   2.847575 C.3        1 UNL1     0.2326
     6 O         -0.100948   -1.614594   2.999111 O.3        1 UNL1     -0.3076
     7 O         -2.435393   -1.134547   3.193248 O.3        1 UNL1     -0.4605
     8 C         -2.770329   -1.059557   4.533293 C.ar        1 UNL1     0.1310
     9 C         -3.025277   -2.153517   5.367291 C.ar        1 UNL1     0.0226
     10 C         -3.34099   -1.97469   6.719419 C.ar        1 UNL1     0.1343
     11 C         -3.386095   -0.697405   7.276509 C.ar        1 UNL1     0.1007
     12 C         -3.173686   0.404914   6.444307 C.ar        1 UNL1     0.1389
     13 C         -2.858856   0.224967   5.084185 C.ar        1 UNL1     0.0229
     14 C         -3.632031   -0.455346   8.717021 C.2        1 UNL1     0.1740
     15 C         -3.424909   0.955902   9.182885 C.3        1 UNL1     0.0520
     16 C         -3.978686   1.899065   8.123767 C.3        1 UNL1     0.1322
     17 O         -3.299911   1.709247   6.862694 O.3        1 UNL1     -0.4828
     18 C         -5.506351   1.890829   8.029451 C.ar        1 UNL1     -0.0067
     19 C         -6.121596   1.765953   6.766877 C.ar        1 UNL1     -0.0516
     20 C         -7.515367   1.802391   6.640236 C.ar        1 UNL1     -0.0198
     21 C         -8.302897   1.970228   7.76516 C.ar        1 UNL1     0.1169
     22 C         -7.727698   2.062411   9.025909 C.ar        1 UNL1     -0.0198
     23 C         -6.334714   2.007488   9.154885 C.ar        1 UNL1     -0.0516
     24 O         -9.654906   2.038961   7.598584 O.3        1 UNL1     -0.5068
     25 O         -3.909195   -1.347104   9.514789 O.2        1 UNL1     -0.2917
     26 O         -3.579863   -3.083019   7.478452 O.3        1 UNL1     -0.5058
     27 O         -0.062527   0.673083   2.468397 O.3        1 UNL1     -0.3648
     28 O         1.08423   -1.74164   0.0443 O.3        1 UNL1     -0.3841
     29 O         -2.370786   -0.786591   0.084231 O.3        1 UNL1     -0.3863
     30 O         -0.742655   -3.846134   1.304271 O.3        1 UNL1     -0.3829
     31 H         1.413227   -0.634579   2.168138 H        1 UNL1     0.0937
     32 H         -0.0   0.0   0.0 H        1 UNL1     0.0671
     33 H         -1.1821   -2.271604   -0.598047 H        1 UNL1     0.0649
     34 H         -2.640724   -3.066053   1.331581 H        1 UNL1     0.0683
     35 H         -1.529824   -2.970166   3.515833 H        1 UNL1     0.1085
     36 H         -2.951084   -3.174031   5.007893 H        1 UNL1     0.0691
     37 H         -2.698999   1.099543   4.457243 H        1 UNL1     0.0691
     38 H         -2.348576   1.104686   9.320349 H        1 UNL1     0.0385
     39 H         -3.915311   1.089204   10.153202 H        1 UNL1     0.0385
     40 H         -3.711841   2.920155   8.428218 H        1 UNL1     0.0789
     41 H         -5.52517   1.642429   5.867618 H        1 UNL1     0.0623
     42 H         -7.977401   1.716968   5.659808 H        1 UNL1     0.0654
     43 H         -8.335687   2.178969   9.915107 H        1 UNL1     0.0654
     44 H         -5.919819   2.072037   10.156154 H        1 UNL1     0.0623
     45 H         -9.855891   2.802683   7.033739 H        1 UNL1     0.2921
     46 H         -2.977033   -3.090567   8.238682 H        1 UNL1     0.2922
     47 H         0.352832   1.335479   1.898687 H        1 UNL1     0.2126
     48 H         1.89714   -1.203636   0.103147 H        1 UNL1     0.2101
     49 H         -2.246308   -0.353735   -0.775382 H        1 UNL1     0.2100
     50 H         -0.971117   -4.301272   0.467392 H        1 UNL1     0.2102
@<TRIPOS>BOND
     1     1     2    1
     2     1     6    1
     3     2     3    1
     4     3     4    1
     5     3    29    1
     6     3    33    1
     7     4     5    1
     8     5     6    1
     9     5     7    1
    10     5    35    1
    11     7     8    1
    12     8     9   ar
    13     8    13   ar
    14     9    10   ar
    15     9    36    1
    16    10    11   ar
    17    10    26    1
    18    11    12   ar
    19    11    14    1
    20    12    13   ar
    21    12    17    1
    22    13    37    1
    23    14    15    1
    24    14    25    2
    25    15    16    1
    26    15    38    1
    27    15    39    1
    28    16    17    1
    29    16    18    1
    30    16    40    1
    31    18    19   ar
    32    18    23   ar
    33    19    20   ar
    34    19    41    1
    35    20    21   ar
    36    20    42    1
    37    21    22   ar
    38    21    24    1
    39    22    23   ar
    40    22    43    1
    41    23    44    1
    42    24    45    1
    43    26    46    1
    44    27    47    1
    45    28    48    1
    46    29    49    1
    47    30    50    1
    48     1    31    1
    49     1    27    1
    50     2    32    1
    51     2    28    1
    52     4    34    1
    53     4    30    1
