@<TRIPOS>MOLECULE
*****
 50 53 0 0 0
SMALL
GASTEIGER

@<TRIPOS>ATOM
     1 C         0.988669   1.945067   -0.100262 C.3        1 UNL1     0.1889
     2 C         0.834157   0.517523   0.48981 C.3        1 UNL1     0.1342
     3 C         0.628139   0.471528   2.01162 C.3        1 UNL1     0.1174
     4 C         1.39898   1.569779   2.748348 C.3        1 UNL1     0.1456
     5 C         1.235324   2.950637   2.087432 C.3        1 UNL1     0.2326
     6 O         1.652899   2.890215   0.725504 O.3        1 UNL1     -0.3076
     7 O         -0.079405   3.512594   2.251787 O.3        1 UNL1     -0.4605
     8 C         -0.14325   4.892039   2.332938 C.ar        1 UNL1     0.1310
     9 C         0.458093   5.674123   3.324921 C.ar        1 UNL1     0.0226
     10 C         0.349829   7.069825   3.310888 C.ar        1 UNL1     0.1343
     11 C         -0.343106   7.719367   2.290212 C.ar        1 UNL1     0.1007
     12 C         -0.982427   6.946957   1.316849 C.ar        1 UNL1     0.1389
     13 C         -0.875641   5.543469   1.332657 C.ar        1 UNL1     0.0229
     14 C         -0.418201   9.194618   2.179998 C.2        1 UNL1     0.1740
     15 C         -1.009585   9.721215   0.905435 C.3        1 UNL1     0.0520
     16 C         -2.196041   8.845435   0.5269 C.3        1 UNL1     0.1322
     17 O         -1.780178   7.476141   0.329011 O.3        1 UNL1     -0.4828
     18 C         -3.405554   9.014029   1.449602 C.ar        1 UNL1     -0.0067
     19 C         -3.625651   8.077994   2.480917 C.ar        1 UNL1     -0.0516
     20 C         -4.747711   8.175882   3.312398 C.ar        1 UNL1     -0.0198
     21 C         -5.658872   9.198636   3.118523 C.ar        1 UNL1     0.1169
     22 C         -5.452035   10.154982   2.132897 C.ar        1 UNL1     -0.0198
     23 C         -4.320424   10.067971   1.313176 C.ar        1 UNL1     -0.0516
     24 O         -6.759329   9.23993   3.923316 O.3        1 UNL1     -0.5068
     25 O         0.039049   9.95988   3.024853 O.2        1 UNL1     -0.2917
     26 O         0.9587   7.774445   4.30807 O.3        1 UNL1     -0.5058
     27 O         -0.217008   2.470415   -0.63237 O.3        1 UNL1     -0.3648
     28 O         2.029703   -0.229078   0.196614 O.3        1 UNL1     -0.3841
     29 O         -0.763838   0.460398   2.334744 O.3        1 UNL1     -0.3863
     30 O         2.802361   1.229652   2.771306 O.3        1 UNL1     -0.3829
     31 H         1.649936   1.854607   -0.968952 H        1 UNL1     0.0937
     32 H         0.0   0.0   0.0 H        1 UNL1     0.0671
     33 H         1.019502   -0.489279   2.374116 H        1 UNL1     0.0649
     34 H         1.065661   1.625862   3.790535 H        1 UNL1     0.0683
     35 H         1.959328   3.583988   2.615225 H        1 UNL1     0.1085
     36 H         1.057186   5.232812   4.113878 H        1 UNL1     0.0691
     37 H         -1.383621   4.964866   0.564108 H        1 UNL1     0.0691
     38 H         -0.22945   9.682776   0.137686 H        1 UNL1     0.0385
     39 H         -1.297012   10.768396   1.048885 H        1 UNL1     0.0385
     40 H         -2.538162   9.174351   -0.4637 H        1 UNL1     0.0789
     41 H         -2.930008   7.260728   2.647673 H        1 UNL1     0.0623
     42 H         -4.912566   7.441035   4.096511 H        1 UNL1     0.0654
     43 H         -6.15138   10.968683   1.982173 H        1 UNL1     0.0654
     44 H         -4.184946   10.83834   0.560166 H        1 UNL1     0.0623
     45 H         -7.535272   8.992357   3.394793 H        1 UNL1     0.2921
     46 H         1.424758   8.535905   3.928096 H        1 UNL1     0.2922
     47 H         -0.583126   1.865569   -1.292657 H        1 UNL1     0.2126
     48 H         2.66973   -0.021487   0.90443 H        1 UNL1     0.2101
     49 H         -1.056889   1.357032   2.562696 H        1 UNL1     0.2100
     50 H         2.91435   0.450918   3.355039 H        1 UNL1     0.2102
@<TRIPOS>BOND
     1     1     2    1
     2     1     6    1
     3     2     3    1
     4     3     4    1
     5     3    29    1
     6     3    33    1
     7     4     5    1
     8     5     6    1
     9     5     7    1
    10     5    35    1
    11     7     8    1
    12     8     9   ar
    13     8    13   ar
    14     9    10   ar
    15     9    36    1
    16    10    11   ar
    17    10    26    1
    18    11    12   ar
    19    11    14    1
    20    12    13   ar
    21    12    17    1
    22    13    37    1
    23    14    15    1
    24    14    25    2
    25    15    16    1
    26    15    38    1
    27    15    39    1
    28    16    17    1
    29    16    18    1
    30    16    40    1
    31    18    19   ar
    32    18    23   ar
    33    19    20   ar
    34    19    41    1
    35    20    21   ar
    36    20    42    1
    37    21    22   ar
    38    21    24    1
    39    22    23   ar
    40    22    43    1
    41    23    44    1
    42    24    45    1
    43    26    46    1
    44    27    47    1
    45    28    48    1
    46    29    49    1
    47    30    50    1
    48     1    31    1
    49     1    27    1
    50     2    32    1
    51     2    28    1
    52     4    34    1
    53     4    30    1
