@<TRIPOS>MOLECULE
*****
 50 53 0 0 0
SMALL
GASTEIGER

@<TRIPOS>ATOM
     1 C         0.743798   0.543284   1.980508 C.3        1 UNL1     0.1889
     2 C         -0.233986   0.72585   0.78864 C.3        1 UNL1     0.1342
     3 C         -0.249175   2.137351   0.182092 C.3        1 UNL1     0.1174
     4 C         -0.038405   3.23504   1.227927 C.3        1 UNL1     0.1456
     5 C         1.12864   2.924248   2.182797 C.3        1 UNL1     0.2326
     6 O         0.909158   1.671357   2.826972 O.3        1 UNL1     -0.3076
     7 O         2.421614   3.020488   1.558077 O.3        1 UNL1     -0.4605
     8 C         3.504823   2.690323   2.352544 C.ar        1 UNL1     0.1310
     9 C         3.432192   2.236744   3.674018 C.ar        1 UNL1     0.0226
     10 C         4.589022   1.910799   4.391937 C.ar        1 UNL1     0.1343
     11 C         5.846322   2.007954   3.797296 C.ar        1 UNL1     0.1007
     12 C         5.934478   2.498737   2.491867 C.ar        1 UNL1     0.1389
     13 C         4.77133   2.828918   1.771106 C.ar        1 UNL1     0.0229
     14 C         7.094472   1.597288   4.481128 C.2        1 UNL1     0.1740
     15 C         8.323365   1.558094   3.620991 C.3        1 UNL1     0.0520
     16 C         8.299115   2.763241   2.690943 C.3        1 UNL1     0.1322
     17 O         7.126397   2.736679   1.847677 O.3        1 UNL1     -0.4828
     18 C         8.537843   4.096537   3.403723 C.ar        1 UNL1     -0.0067
     19 C         9.810556   4.375485   3.9428 C.ar        1 UNL1     -0.0516
     20 C         10.049628   5.564623   4.641912 C.ar        1 UNL1     -0.0198
     21 C         9.024626   6.477495   4.814717 C.ar        1 UNL1     0.1169
     22 C         7.769576   6.246347   4.266757 C.ar        1 UNL1     -0.0198
     23 C         7.535255   5.065712   3.55174 C.ar        1 UNL1     -0.0516
     24 O         9.284606   7.607048   5.533689 O.3        1 UNL1     -0.5068
     25 O         7.134357   1.230517   5.652612 O.2        1 UNL1     -0.2917
     26 O         4.449593   1.475377   5.677453 O.3        1 UNL1     -0.5058
     27 O         1.991794   -0.018639   1.606966 O.3        1 UNL1     -0.3648
     28 O         -1.569112   0.441899   1.24637 O.3        1 UNL1     -0.3841
     29 O         0.667962   2.22988   -0.909893 O.3        1 UNL1     -0.3863
     30 O         -1.246091   3.387037   2.005154 O.3        1 UNL1     -0.3829
     31 H         0.29625   -0.208285   2.639996 H        1 UNL1     0.0937
     32 H         0.0   0.0   -0.0 H        1 UNL1     0.0671
     33 H         -1.242996   2.303097   -0.256733 H        1 UNL1     0.0649
     34 H         0.14611   4.194142   0.731461 H        1 UNL1     0.0683
     35 H         1.050915   3.698533   2.956309 H        1 UNL1     0.1085
     36 H         2.481569   2.086454   4.173866 H        1 UNL1     0.0691
     37 H         4.867043   3.209909   0.756622 H        1 UNL1     0.0691
     38 H         8.301109   0.621234   3.054137 H        1 UNL1     0.0385
     39 H         9.210732   1.548385   4.263068 H        1 UNL1     0.0385
     40 H         9.140872   2.651415   1.994194 H        1 UNL1     0.0789
     41 H         10.629225   3.670928   3.828647 H        1 UNL1     0.0623
     42 H         11.032133   5.762792   5.063131 H        1 UNL1     0.0654
     43 H         6.963903   6.961361   4.38319 H        1 UNL1     0.0654
     44 H         6.545788   4.922666   3.128257 H        1 UNL1     0.0623
     45 H         9.554502   7.345443   6.428918 H        1 UNL1     0.2921
     46 H         5.283036   1.079056   5.976978 H        1 UNL1     0.2922
     47 H         2.059508   -0.928106   1.929681 H        1 UNL1     0.2126
     48 H         -2.149844   1.122052   0.854099 H        1 UNL1     0.2101
     49 H         1.138338   3.078003   -0.87484 H        1 UNL1     0.2100
     50 H         -1.108277   2.941485   2.866666 H        1 UNL1     0.2102
@<TRIPOS>BOND
     1     1     2    1
     2     1     6    1
     3     2     3    1
     4     3     4    1
     5     3    29    1
     6     3    33    1
     7     4     5    1
     8     5     6    1
     9     5     7    1
    10     5    35    1
    11     7     8    1
    12     8     9   ar
    13     8    13   ar
    14     9    10   ar
    15     9    36    1
    16    10    11   ar
    17    10    26    1
    18    11    12   ar
    19    11    14    1
    20    12    13   ar
    21    12    17    1
    22    13    37    1
    23    14    15    1
    24    14    25    2
    25    15    16    1
    26    15    38    1
    27    15    39    1
    28    16    17    1
    29    16    18    1
    30    16    40    1
    31    18    19   ar
    32    18    23   ar
    33    19    20   ar
    34    19    41    1
    35    20    21   ar
    36    20    42    1
    37    21    22   ar
    38    21    24    1
    39    22    23   ar
    40    22    43    1
    41    23    44    1
    42    24    45    1
    43    26    46    1
    44    27    47    1
    45    28    48    1
    46    29    49    1
    47    30    50    1
    48     1    31    1
    49     1    27    1
    50     2    32    1
    51     2    28    1
    52     4    34    1
    53     4    30    1
