@<TRIPOS>MOLECULE
*****
 50 53 0 0 0
SMALL
GASTEIGER

@<TRIPOS>ATOM
     1 C         -0.518155   -1.449863   1.549263 C.3        1 UNL1     0.1889
     2 C         0.366438   -0.966036   0.368862 C.3        1 UNL1     0.1342
     3 C         0.459149   -1.949308   -0.808018 C.3        1 UNL1     0.1174
     4 C         0.44057   -3.413241   -0.361173 C.3        1 UNL1     0.1456
     5 C         -0.663887   -3.700963   0.672149 C.3        1 UNL1     0.2326
     6 O         -0.505992   -2.84697   1.802916 O.3        1 UNL1     -0.3076
     7 O         -1.991344   -3.665511   0.117244 O.3        1 UNL1     -0.4605
     8 C         -2.874466   -2.7837   0.713929 C.ar        1 UNL1     0.1310
     9 C         -4.269603   -2.870035   0.65528 C.ar        1 UNL1     0.0226
     10 C         -5.080717   -1.934919   1.309157 C.ar        1 UNL1     0.1343
     11 C         -4.51574   -0.903498   2.058032 C.ar        1 UNL1     0.1007
     12 C         -3.123901   -0.78295   2.090201 C.ar        1 UNL1     0.1389
     13 C         -2.308571   -1.721788   1.430466 C.ar        1 UNL1     0.0229
     14 C         -5.324526   0.062259   2.837347 C.2        1 UNL1     0.1740
     15 C         -4.552912   0.961129   3.758321 C.3        1 UNL1     0.0520
     16 C         -3.278657   1.398295   3.049012 C.3        1 UNL1     0.1322
     17 O         -2.464462   0.255132   2.706475 O.3        1 UNL1     -0.4828
     18 C         -3.519763   2.374111   1.894727 C.ar        1 UNL1     -0.0067
     19 C         -3.612239   1.879445   0.577545 C.ar        1 UNL1     -0.0516
     20 C         -3.784936   2.749108   -0.505887 C.ar        1 UNL1     -0.0198
     21 C         -3.859065   4.113007   -0.286543 C.ar        1 UNL1     0.1169
     22 C         -3.804871   4.627756   1.00223 C.ar        1 UNL1     -0.0198
     23 C         -3.65069   3.756891   2.087531 C.ar        1 UNL1     -0.0516
     24 O         -3.98937   4.931832   -1.36957 O.3        1 UNL1     -0.5068
     25 O         -6.552083   0.092342   2.811192 O.2        1 UNL1     -0.2917
     26 O         -6.434428   -2.074742   1.211683 O.3        1 UNL1     -0.5058
     27 O         -1.839909   -0.935626   1.513033 O.3        1 UNL1     -0.3648
     28 O         1.704149   -0.755664   0.857714 O.3        1 UNL1     -0.3841
     29 O         -0.535862   -1.658201   -1.791554 O.3        1 UNL1     -0.3863
     30 O         1.719296   -3.747068   0.221158 O.3        1 UNL1     -0.3829
     31 H         -0.086638   -1.020498   2.460041 H        1 UNL1     0.0937
     32 H         0.0   0.0   -0.0 H        1 UNL1     0.0671
     33 H         1.422685   -1.782286   -1.309438 H        1 UNL1     0.0649
     34 H         0.303044   -4.06749   -1.229186 H        1 UNL1     0.0683
     35 H         -0.44932   -4.72216   1.011262 H        1 UNL1     0.1085
     36 H         -4.769435   -3.680444   0.136121 H        1 UNL1     0.0691
     37 H         -1.227685   -1.605079   1.469937 H        1 UNL1     0.0691
     38 H         -4.324452   0.389643   4.664266 H        1 UNL1     0.0385
     39 H         -5.18255   1.811914   4.040281 H        1 UNL1     0.0385
     40 H         -2.676408   1.955326   3.779446 H        1 UNL1     0.0789
     41 H         -3.547786   0.813737   0.378143 H        1 UNL1     0.0623
     42 H         -3.842909   2.356358   -1.518012 H        1 UNL1     0.0654
     43 H         -3.876983   5.692979   1.186647 H        1 UNL1     0.0654
     44 H         -3.622813   4.192757   3.081558 H        1 UNL1     0.0623
     45 H         -4.782739   4.665396   -1.861802 H        1 UNL1     0.2921
     46 H         -6.784957   -2.42072   2.047649 H        1 UNL1     0.2922
     47 H         -1.823036   0.021745   1.375139 H        1 UNL1     0.2126
     48 H         2.309131   -1.11547   0.180759 H        1 UNL1     0.2101
     49 H         -0.110884   -1.436896   -2.635481 H        1 UNL1     0.2100
     50 H         1.615527   -3.749632   1.195292 H        1 UNL1     0.2102
@<TRIPOS>BOND
     1     1     2    1
     2     1     6    1
     3     2     3    1
     4     3     4    1
     5     3    29    1
     6     3    33    1
     7     4     5    1
     8     5     6    1
     9     5     7    1
    10     5    35    1
    11     7     8    1
    12     8     9   ar
    13     8    13   ar
    14     9    10   ar
    15     9    36    1
    16    10    11   ar
    17    10    26    1
    18    11    12   ar
    19    11    14    1
    20    12    13   ar
    21    12    17    1
    22    13    37    1
    23    14    15    1
    24    14    25    2
    25    15    16    1
    26    15    38    1
    27    15    39    1
    28    16    17    1
    29    16    18    1
    30    16    40    1
    31    18    19   ar
    32    18    23   ar
    33    19    20   ar
    34    19    41    1
    35    20    21   ar
    36    20    42    1
    37    21    22   ar
    38    21    24    1
    39    22    23   ar
    40    22    43    1
    41    23    44    1
    42    24    45    1
    43    26    46    1
    44    27    47    1
    45    28    48    1
    46    29    49    1
    47    30    50    1
    48     1    31    1
    49     1    27    1
    50     2    32    1
    51     2    28    1
    52     4    34    1
    53     4    30    1
