@<TRIPOS>MOLECULE
*****
 50 53 0 0 0
SMALL
GASTEIGER

@<TRIPOS>ATOM
     1 C         -0.336365   -1.331512   1.698452 C.3        1 UNL1     0.1889
     2 C         -0.464756   -0.974831   0.19305 C.3        1 UNL1     0.1342
     3 C         -1.905096   -0.95791   -0.341364 C.3        1 UNL1     0.1174
     4 C         -2.794284   -2.016747   0.31539 C.3        1 UNL1     0.1456
     5 C         -2.644054   -2.045944   1.847363 C.3        1 UNL1     0.2326
     6 O         -1.279942   -2.267811   2.197852 O.3        1 UNL1     -0.3076
     7 O         -3.217037   -0.899144   2.501476 O.3        1 UNL1     -0.4605
     8 C         -3.728557   -1.116464   3.768222 C.ar        1 UNL1     0.1310
     9 C         -4.547702   -2.188491   4.138437 C.ar        1 UNL1     0.0226
     10 C         -5.002352   -2.330988   5.45483 C.ar        1 UNL1     0.1343
     11 C         -4.628998   -1.417013   6.439257 C.ar        1 UNL1     0.1007
     12 C         -3.844995   -0.319816   6.072813 C.ar        1 UNL1     0.1389
     13 C         -3.390151   -0.175318   4.748552 C.ar        1 UNL1     0.0229
     14 C         -5.011469   -1.565374   7.862584 C.2        1 UNL1     0.1740
     15 C         -4.341394   -0.620902   8.816796 C.3        1 UNL1     0.0520
     16 C         -4.268343   0.752476   8.163762 C.3        1 UNL1     0.1322
     17 O         -3.508617   0.696844   6.936247 O.3        1 UNL1     -0.4828
     18 C         -5.625904   1.448237   8.038597 C.ar        1 UNL1     -0.0067
     19 C         -6.001268   2.017292   6.804298 C.ar        1 UNL1     -0.0516
     20 C         -7.214853   2.701914   6.668406 C.ar        1 UNL1     -0.0198
     21 C         -8.05655   2.830435   7.758753 C.ar        1 UNL1     0.1169
     22 C         -7.72996   2.252158   8.978496 C.ar        1 UNL1     -0.0198
     23 C         -6.524941   1.551622   9.109782 C.ar        1 UNL1     -0.0516
     24 O         -9.212469   3.536521   7.598453 O.3        1 UNL1     -0.5068
     25 O         -5.762659   -2.446364   8.272531 O.2        1 UNL1     -0.2917
     26 O         -5.799366   -3.398224   5.7504 O.3        1 UNL1     -0.5058
     27 O         -0.229285   -0.195461   2.541487 O.3        1 UNL1     -0.3648
     28 O         0.264282   -1.953109   -0.571268 O.3        1 UNL1     -0.3841
     29 O         -2.459712   0.356752   -0.262655 O.3        1 UNL1     -0.3863
     30 O         -2.449145   -3.3171   -0.209637 O.3        1 UNL1     -0.3829
     31 H         0.623067   -1.846763   1.817135 H        1 UNL1     0.0937
     32 H         0.0   0.0   0.0 H        1 UNL1     0.0671
     33 H         -1.867683   -1.19507   -1.41378 H        1 UNL1     0.0649
     34 H         -3.843789   -1.83551   0.058306 H        1 UNL1     0.0683
     35 H         -3.201004   -2.941288   2.150752 H        1 UNL1     0.1085
     36 H         -4.827169   -2.962884   3.432508 H        1 UNL1     0.0691
     37 H         -2.7819   0.688374   4.488628 H        1 UNL1     0.0691
     38 H         -3.34014   -1.013781   9.023345 H        1 UNL1     0.0385
     39 H         -4.902478   -0.60283   9.757348 H        1 UNL1     0.0385
     40 H         -3.672647   1.394743   8.826453 H        1 UNL1     0.0789
     41 H         -5.353865   1.938067   5.935826 H        1 UNL1     0.0623
     42 H         -7.487575   3.146571   5.714512 H        1 UNL1     0.0654
     43 H         -8.388736   2.333837   9.834798 H        1 UNL1     0.0654
     44 H         -6.306681   1.10355   10.074374 H        1 UNL1     0.0623
     45 H         -8.98389   4.446226   7.347645 H        1 UNL1     0.2921
     46 H         -5.398071   -3.912609   6.468581 H        1 UNL1     0.2922
     47 H         0.513458   0.358701   2.263824 H        1 UNL1     0.2126
     48 H         1.199878   -1.878278   -0.301468 H        1 UNL1     0.2101
     49 H         -2.019076   0.939603   -0.901339 H        1 UNL1     0.2100
     50 H         -2.686834   -3.331367   -1.159907 H        1 UNL1     0.2102
@<TRIPOS>BOND
     1     1     2    1
     2     1     6    1
     3     2     3    1
     4     3     4    1
     5     3    29    1
     6     3    33    1
     7     4     5    1
     8     5     6    1
     9     5     7    1
    10     5    35    1
    11     7     8    1
    12     8     9   ar
    13     8    13   ar
    14     9    10   ar
    15     9    36    1
    16    10    11   ar
    17    10    26    1
    18    11    12   ar
    19    11    14    1
    20    12    13   ar
    21    12    17    1
    22    13    37    1
    23    14    15    1
    24    14    25    2
    25    15    16    1
    26    15    38    1
    27    15    39    1
    28    16    17    1
    29    16    18    1
    30    16    40    1
    31    18    19   ar
    32    18    23   ar
    33    19    20   ar
    34    19    41    1
    35    20    21   ar
    36    20    42    1
    37    21    22   ar
    38    21    24    1
    39    22    23   ar
    40    22    43    1
    41    23    44    1
    42    24    45    1
    43    26    46    1
    44    27    47    1
    45    28    48    1
    46    29    49    1
    47    30    50    1
    48     1    31    1
    49     1    27    1
    50     2    32    1
    51     2    28    1
    52     4    34    1
    53     4    30    1
