@<TRIPOS>MOLECULE
*****
 50 53 0 0 0
SMALL
GASTEIGER

@<TRIPOS>ATOM
     1 C         -1.240388   -0.130753   1.793083 C.3        1 UNL1     0.1889
     2 C         -0.677082   0.645899   0.572657 C.3        1 UNL1     0.1342
     3 C         0.0535   1.950827   0.924621 C.3        1 UNL1     0.1174
     4 C         -0.565459   2.672562   2.124249 C.3        1 UNL1     0.1456
     5 C         -0.852431   1.722226   3.301054 C.3        1 UNL1     0.2326
     6 O         -1.70666   0.663639   2.87379 O.3        1 UNL1     -0.3076
     7 O         0.336588   1.256855   3.965122 O.3        1 UNL1     -0.4605
     8 C         1.408622   0.951958   3.145788 C.ar        1 UNL1     0.1310
     9 C         2.258934   -0.14831   3.299672 C.ar        1 UNL1     0.0226
     10 C         3.310001   -0.381439   2.40479 C.ar        1 UNL1     0.1343
     11 C         3.52181   0.467697   1.319459 C.ar        1 UNL1     0.1007
     12 C         2.704708   1.592569   1.178779 C.ar        1 UNL1     0.1389
     13 C         1.64958   1.82822   2.080226 C.ar        1 UNL1     0.0229
     14 C         4.56441   0.222127   0.29631 C.2        1 UNL1     0.1740
     15 C         4.506351   1.105879   -0.914955 C.3        1 UNL1     0.0520
     16 C         4.168553   2.520176   -0.46372 C.3        1 UNL1     0.1322
     17 O         2.891406   2.551942   0.210785 O.3        1 UNL1     -0.4828
     18 C         5.303671   3.212755   0.29428 C.ar        1 UNL1     -0.0067
     19 C         5.310562   3.188974   1.704103 C.ar        1 UNL1     -0.0516
     20 C         6.307771   3.852511   2.428848 C.ar        1 UNL1     -0.0198
     21 C         7.297209   4.547942   1.757122 C.ar        1 UNL1     0.1169
     22 C         7.336247   4.561762   0.368913 C.ar        1 UNL1     -0.0198
     23 C         6.349665   3.882904   -0.356252 C.ar        1 UNL1     -0.0516
     24 O         8.229985   5.213572   2.496896 O.3        1 UNL1     -0.5068
     25 O         5.383843   -0.689677   0.371325 O.2        1 UNL1     -0.2917
     26 O         4.103728   -1.471795   2.611442 O.3        1 UNL1     -0.5058
     27 O         -0.390744   -1.175555   2.239491 O.3        1 UNL1     -0.3648
     28 O         -1.773411   0.989354   -0.294987 O.3        1 UNL1     -0.3841
     29 O         1.455358   1.721059   1.07997 O.3        1 UNL1     -0.3863
     30 O         -1.804016   3.293225   1.716276 O.3        1 UNL1     -0.3829
     31 H         -2.142607   -0.646409   1.446416 H        1 UNL1     0.0937
     32 H         0.0   0.0   0.0 H        1 UNL1     0.0671
     33 H         -0.0375   2.628623   0.06437 H        1 UNL1     0.0649
     34 H         0.099488   3.475354   2.461551 H        1 UNL1     0.0683
     35 H         -1.431699   2.336405   4.001847 H        1 UNL1     0.1085
     36 H         2.112404   -0.876025   4.090291 H        1 UNL1     0.0691
     37 H         1.028458   2.711733   1.949439 H        1 UNL1     0.0691
     38 H         3.731659   0.707472   -1.57877 H        1 UNL1     0.0385
     39 H         5.465812   1.057193   -1.441113 H        1 UNL1     0.0385
     40 H         4.015311   3.121259   -1.370216 H        1 UNL1     0.0789
     41 H         4.539772   2.657799   2.254908 H        1 UNL1     0.0623
     42 H         6.295423   3.83672   3.515867 H        1 UNL1     0.0654
     43 H         8.115118   5.090674   -0.167297 H        1 UNL1     0.0654
     44 H         6.417024   3.905972   -1.439662 H        1 UNL1     0.0623
     45 H         8.662398   4.577491   3.089465 H        1 UNL1     0.2921
     46 H         3.882806   -2.160101   1.964263 H        1 UNL1     0.2922
     47 H         -0.114383   -1.724623   1.492492 H        1 UNL1     0.2126
     48 H         -2.478787   0.335242   -0.126716 H        1 UNL1     0.2101
     49 H         1.87535   1.641926   0.208684 H        1 UNL1     0.2100
     50 H         -1.586454   4.026906   1.104646 H        1 UNL1     0.2102
@<TRIPOS>BOND
     1     1     2    1
     2     1     6    1
     3     2     3    1
     4     3     4    1
     5     3    29    1
     6     3    33    1
     7     4     5    1
     8     5     6    1
     9     5     7    1
    10     5    35    1
    11     7     8    1
    12     8     9   ar
    13     8    13   ar
    14     9    10   ar
    15     9    36    1
    16    10    11   ar
    17    10    26    1
    18    11    12   ar
    19    11    14    1
    20    12    13   ar
    21    12    17    1
    22    13    37    1
    23    14    15    1
    24    14    25    2
    25    15    16    1
    26    15    38    1
    27    15    39    1
    28    16    17    1
    29    16    18    1
    30    16    40    1
    31    18    19   ar
    32    18    23   ar
    33    19    20   ar
    34    19    41    1
    35    20    21   ar
    36    20    42    1
    37    21    22   ar
    38    21    24    1
    39    22    23   ar
    40    22    43    1
    41    23    44    1
    42    24    45    1
    43    26    46    1
    44    27    47    1
    45    28    48    1
    46    29    49    1
    47    30    50    1
    48     1    31    1
    49     1    27    1
    50     2    32    1
    51     2    28    1
    52     4    34    1
    53     4    30    1
