@<TRIPOS>MOLECULE
*****
 50 53 0 0 0
SMALL
GASTEIGER

@<TRIPOS>ATOM
     1 C         1.61321   0.346269   1.431242 C.3        1 UNL1     0.1889
     2 C         1.070714   -0.220706   0.091773 C.3        1 UNL1     0.1342
     3 C         1.289825   -1.729023   -0.101706 C.3        1 UNL1     0.1174
     4 C         2.604491   -2.220907   0.508884 C.3        1 UNL1     0.1456
     5 C         2.830526   -1.684312   1.934134 C.3        1 UNL1     0.2326
     6 O         2.797978   -0.258911   1.927708 O.3        1 UNL1     -0.3076
     7 O         1.949335   -2.266035   2.912103 O.3        1 UNL1     -0.4605
     8 C         1.867575   -1.604357   4.124137 C.ar        1 UNL1     0.1310
     9 C         1.952186   -2.207187   5.383795 C.ar        1 UNL1     0.0226
     10 C         1.874911   -1.446784   6.556705 C.ar        1 UNL1     0.1343
     11 C         1.734891   -0.060856   6.498069 C.ar        1 UNL1     0.1007
     12 C         1.608081   0.547868   5.246606 C.ar        1 UNL1     0.1389
     13 C         1.683158   -0.217239   4.067451 C.ar        1 UNL1     0.0229
     14 C         1.732012   0.799973   7.703523 C.2        1 UNL1     0.1740
     15 C         1.797844   2.276902   7.44682 C.3        1 UNL1     0.0520
     16 C         0.910722   2.59825   6.251953 C.3        1 UNL1     0.1322
     17 O         1.358823   1.88981   5.075352 O.3        1 UNL1     -0.4828
     18 C         -0.586106   2.463509   6.541911 C.ar        1 UNL1     -0.0067
     19 C         -1.519836   2.940688   5.599222 C.ar        1 UNL1     -0.0516
     20 C         -2.894912   2.876035   5.854073 C.ar        1 UNL1     -0.0198
     21 C         -3.347662   2.344396   7.048311 C.ar        1 UNL1     0.1169
     22 C         -2.454032   1.835827   7.981917 C.ar        1 UNL1     -0.0198
     23 C         -1.079679   1.883512   7.719359 C.ar        1 UNL1     -0.0516
     24 O         -4.692151   2.332632   7.277684 O.3        1 UNL1     -0.5068
     25 O         1.756206   0.35874   8.849478 O.2        1 UNL1     -0.2917
     26 O         1.963126   -2.095803   7.753608 O.3        1 UNL1     -0.5058
     27 O         0.621671   0.461111   2.439433 O.3        1 UNL1     -0.3648
     28 O         1.738622   0.451686   -0.991968 O.3        1 UNL1     -0.3841
     29 O         0.156091   -2.468895   0.355865 O.3        1 UNL1     -0.3863
     30 O         3.703127   -1.795982   -0.326656 O.3        1 UNL1     -0.3829
     31 H         1.917305   1.379881   1.233124 H        1 UNL1     0.0937
     32 H         -0.0   0.0   0.0 H        1 UNL1     0.0671
     33 H         1.348628   -1.923525   -1.18172 H        1 UNL1     0.0649
     34 H         2.621267   -3.316241   0.527936 H        1 UNL1     0.0683
     35 H         3.861469   -1.97876   2.167233 H        1 UNL1     0.1085
     36 H         2.117314   -3.273157   5.495871 H        1 UNL1     0.0691
     37 H         1.580482   0.280502   3.105575 H        1 UNL1     0.0691
     38 H         2.843313   2.531217   7.24226 H        1 UNL1     0.0385
     39 H         1.48596   2.812446   8.349981 H        1 UNL1     0.0385
     40 H         1.065506   3.658377   6.009688 H        1 UNL1     0.0789
     41 H         -1.189471   3.37087   4.658237 H        1 UNL1     0.0623
     42 H         -3.604471   3.258184   5.124347 H        1 UNL1     0.0654
     43 H         -2.798442   1.403617   8.913844 H        1 UNL1     0.0654
     44 H         -0.410622   1.467426   8.466407 H        1 UNL1     0.0623
     45 H         -4.840426   2.392455   8.235364 H        1 UNL1     0.2921
     46 H         1.085418   -2.136157   8.165205 H        1 UNL1     0.2922
     47 H         0.466359   1.392046   2.651794 H        1 UNL1     0.2126
     48 H         1.089491   1.069359   -1.380352 H        1 UNL1     0.2101
     49 H         -0.229268   -2.97083   -0.379902 H        1 UNL1     0.2100
     50 H         3.340076   -1.561089   -1.205707 H        1 UNL1     0.2102
@<TRIPOS>BOND
     1     1     2    1
     2     1     6    1
     3     2     3    1
     4     3     4    1
     5     3    29    1
     6     3    33    1
     7     4     5    1
     8     5     6    1
     9     5     7    1
    10     5    35    1
    11     7     8    1
    12     8     9   ar
    13     8    13   ar
    14     9    10   ar
    15     9    36    1
    16    10    11   ar
    17    10    26    1
    18    11    12   ar
    19    11    14    1
    20    12    13   ar
    21    12    17    1
    22    13    37    1
    23    14    15    1
    24    14    25    2
    25    15    16    1
    26    15    38    1
    27    15    39    1
    28    16    17    1
    29    16    18    1
    30    16    40    1
    31    18    19   ar
    32    18    23   ar
    33    19    20   ar
    34    19    41    1
    35    20    21   ar
    36    20    42    1
    37    21    22   ar
    38    21    24    1
    39    22    23   ar
    40    22    43    1
    41    23    44    1
    42    24    45    1
    43    26    46    1
    44    27    47    1
    45    28    48    1
    46    29    49    1
    47    30    50    1
    48     1    31    1
    49     1    27    1
    50     2    32    1
    51     2    28    1
    52     4    34    1
    53     4    30    1
