@<TRIPOS>MOLECULE
*****
 50 53 0 0 0
SMALL
GASTEIGER

@<TRIPOS>ATOM
     1 C         -0.345514   -1.336257   1.69288 C.3        1 UNL1     0.1889
     2 C         -0.469121   -0.97363   0.188498 C.3        1 UNL1     0.1342
     3 C         -1.908192   -0.948946   -0.349024 C.3        1 UNL1     0.1174
     4 C         -2.80311   -2.006534   0.301935 C.3        1 UNL1     0.1456
     5 C         -2.656398   -2.041865   1.83412 C.3        1 UNL1     0.2326
     6 O         -1.293976   -2.270521   2.186809 O.3        1 UNL1     -0.3076
     7 O         -3.226188   -0.895121   2.491111 O.3        1 UNL1     -0.4605
     8 C         -3.741393   -1.114934   3.755933 C.ar        1 UNL1     0.1310
     9 C         -4.565686   -2.184963   4.120462 C.ar        1 UNL1     0.0226
     10 C         -5.023827   -2.330364   5.435326 C.ar        1 UNL1     0.1343
     11 C         -4.648966   -1.421467   6.423872 C.ar        1 UNL1     0.1007
     12 C         -3.859721   -0.32614   6.063127 C.ar        1 UNL1     0.1389
     13 C         -3.401359   -0.17871   4.740403 C.ar        1 UNL1     0.0229
     14 C         -5.03519   -1.573411   7.845807 C.2        1 UNL1     0.1740
     15 C         -4.36342   -0.63511   8.804903 C.3        1 UNL1     0.0520
     16 C         -4.283367   0.740308   8.157002 C.3        1 UNL1     0.1322
     17 O         -3.521151   0.686027   6.930972 O.3        1 UNL1     -0.4828
     18 C         -5.637823   1.442011   8.031362 C.ar        1 UNL1     -0.0067
     19 C         -6.001804   2.030028   6.802555 C.ar        1 UNL1     -0.0516
     20 C         -7.212237   2.720302   6.66715 C.ar        1 UNL1     -0.0198
     21 C         -8.062064   2.835639   7.752655 C.ar        1 UNL1     0.1169
     22 C         -7.746769   2.238762   8.966395 C.ar        1 UNL1     -0.0198
     23 C         -6.544912   1.532669   9.096897 C.ar        1 UNL1     -0.0516
     24 O         -9.214578   3.547549   7.593606 O.3        1 UNL1     -0.5068
     25 O         -5.790844   -2.452822   8.250908 O.2        1 UNL1     -0.2917
     26 O         -5.825804   -3.395421   5.725277 O.3        1 UNL1     -0.5058
     27 O         -0.235712   -0.203697   2.540252 O.3        1 UNL1     -0.3648
     28 O         0.257649   -1.95209   -0.577744 O.3        1 UNL1     -0.3841
     29 O         -2.457661   0.367661   -0.266783 O.3        1 UNL1     -0.3863
     30 O         -2.462068   -3.306371   -0.227029 O.3        1 UNL1     -0.3829
     31 H         0.611561   -1.855816   1.811813 H        1 UNL1     0.0937
     32 H         0.0   0.0   0.0 H        1 UNL1     0.0671
     33 H         -1.86936   -1.182384   -1.422206 H        1 UNL1     0.0649
     34 H         -3.8513   -1.820119   0.043195 H        1 UNL1     0.0683
     35 H         -3.217636   -2.936034   2.13304 H        1 UNL1     0.1085
     36 H         -4.846715   -2.955664   3.411123 H        1 UNL1     0.0691
     37 H         -2.789045   0.683442   4.484946 H        1 UNL1     0.0691
     38 H         -3.364224   -1.032786   9.012236 H        1 UNL1     0.0385
     39 H         -4.926512   -0.618158   9.744275 H        1 UNL1     0.0385
     40 H         -3.686551   1.377761   8.823324 H        1 UNL1     0.0789
     41 H         -5.347855   1.961374   5.938096 H        1 UNL1     0.0623
     42 H         -7.476148   3.17956   5.717706 H        1 UNL1     0.0654
     43 H         -8.411987   2.310082   9.818633 H        1 UNL1     0.0654
     44 H         -6.335555   1.070011   10.056564 H        1 UNL1     0.0623
     45 H         -8.981277   4.460767   7.360539 H        1 UNL1     0.2921
     46 H         -5.428187   -3.914015   6.442475 H        1 UNL1     0.2922
     47 H         0.509039   0.349163   2.265386 H        1 UNL1     0.2126
     48 H         1.193388   -1.880077   -0.307674 H        1 UNL1     0.2101
     49 H         -2.019038   0.948975   -0.908248 H        1 UNL1     0.2100
     50 H         -2.697704   -3.316246   -1.177866 H        1 UNL1     0.2102
@<TRIPOS>BOND
     1     1     2    1
     2     1     6    1
     3     2     3    1
     4     3     4    1
     5     3    29    1
     6     3    33    1
     7     4     5    1
     8     5     6    1
     9     5     7    1
    10     5    35    1
    11     7     8    1
    12     8     9   ar
    13     8    13   ar
    14     9    10   ar
    15     9    36    1
    16    10    11   ar
    17    10    26    1
    18    11    12   ar
    19    11    14    1
    20    12    13   ar
    21    12    17    1
    22    13    37    1
    23    14    15    1
    24    14    25    2
    25    15    16    1
    26    15    38    1
    27    15    39    1
    28    16    17    1
    29    16    18    1
    30    16    40    1
    31    18    19   ar
    32    18    23   ar
    33    19    20   ar
    34    19    41    1
    35    20    21   ar
    36    20    42    1
    37    21    22   ar
    38    21    24    1
    39    22    23   ar
    40    22    43    1
    41    23    44    1
    42    24    45    1
    43    26    46    1
    44    27    47    1
    45    28    48    1
    46    29    49    1
    47    30    50    1
    48     1    31    1
    49     1    27    1
    50     2    32    1
    51     2    28    1
    52     4    34    1
    53     4    30    1
