@<TRIPOS>MOLECULE
*****
 50 53 0 0 0
SMALL
GASTEIGER

@<TRIPOS>ATOM
     1 C         -0.368878   -1.397153   1.637894 C.3        1 UNL1     0.1889
     2 C         -0.48695   -0.971623   0.149632 C.3        1 UNL1     0.1342
     3 C         -1.925749   -0.898548   -0.384206 C.3        1 UNL1     0.1174
     4 C         -2.839607   -1.964911   0.22477 C.3        1 UNL1     0.1456
     5 C         -2.692339   -2.065025   1.754035 C.3        1 UNL1     0.2326
     6 O         -1.334109   -2.332959   2.095049 O.3        1 UNL1     -0.3076
     7 O         -3.240227   -0.935506   2.45783 O.3        1 UNL1     -0.4605
     8 C         -3.768633   -1.19887   3.708811 C.ar        1 UNL1     0.1310
     9 C         -4.611088   -2.270602   4.023392 C.ar        1 UNL1     0.0226
     10 C         -5.081771   -2.46249   5.327823 C.ar        1 UNL1     0.1343
     11 C         -4.701821   -1.60004   6.355275 C.ar        1 UNL1     0.1007
     12 C         -3.894077   -0.502673   6.045243 C.ar        1 UNL1     0.1389
     13 C         -3.423082   -0.308443   4.733044 C.ar        1 UNL1     0.0229
     14 C         -5.101547   -1.803863   7.766951 C.2        1 UNL1     0.1740
     15 C         -4.424072   -0.915196   8.768374 C.3        1 UNL1     0.0520
     16 C         -4.319106   0.484051   8.177572 C.3        1 UNL1     0.1322
     17 O         -3.547966   0.468379   6.956029 O.3        1 UNL1     -0.4828
     18 C         -5.662303   1.210062   8.07055 C.ar        1 UNL1     -0.0067
     19 C         -5.759157   2.374571   7.281404 C.ar        1 UNL1     -0.0516
     20 C         -6.960263   3.089173   7.199845 C.ar        1 UNL1     -0.0198
     21 C         -8.067111   2.654688   7.906908 C.ar        1 UNL1     0.1169
     22 C         -8.012242   1.492938   8.665964 C.ar        1 UNL1     -0.0198
     23 C         -6.816454   0.767918   8.732998 C.ar        1 UNL1     -0.0516
     24 O         -9.208786   3.397353   7.833243 O.3        1 UNL1     -0.5068
     25 O         -5.872962   -2.687808   8.130334 O.2        1 UNL1     -0.2917
     26 O         -5.901245   -3.526557   5.568258 O.3        1 UNL1     -0.5058
     27 O         -0.237399   -0.302096   2.530279 O.3        1 UNL1     -0.3648
     28 O         0.220924   -1.931501   -0.656751 O.3        1 UNL1     -0.3841
     29 O         -2.450632   0.423585   -0.24784 O.3        1 UNL1     -0.3863
     30 O         -2.523165   -3.248328   -0.356948 O.3        1 UNL1     -0.3829
     31 H         0.57849   -1.938725   1.734191 H        1 UNL1     0.0937
     32 H         0.0   0.0   0.0 H        1 UNL1     0.0671
     33 H         -1.892121   -1.088975   -1.466022 H        1 UNL1     0.0649
     34 H         -3.884368   -1.748799   -0.024572 H        1 UNL1     0.0683
     35 H         -3.269827   -2.960037   2.017362 H        1 UNL1     0.1085
     36 H         -4.897468   -3.007688   3.281226 H        1 UNL1     0.0691
     37 H         -2.796433   0.55429   4.517413 H        1 UNL1     0.0691
     38 H         -3.432376   -1.335567   8.966754 H        1 UNL1     0.0385
     39 H         -4.994358   -0.928111   9.70346 H        1 UNL1     0.0385
     40 H         -3.71855   1.085126   8.873677 H        1 UNL1     0.0789
     41 H         -4.902077   2.741341   6.724139 H        1 UNL1     0.0623
     42 H         -7.018974   3.992286   6.59739 H        1 UNL1     0.0654
     43 H         -8.8773   1.135416   9.21164 H        1 UNL1     0.0654
     44 H         -6.812423   -0.140872   9.327077 H        1 UNL1     0.0623
     45 H         -9.039855   4.261   8.243479 H        1 UNL1     0.2921
     46 H         -5.528012   -4.067548   6.282007 H        1 UNL1     0.2922
     47 H         0.507171   0.256696   2.26717 H        1 UNL1     0.2126
     48 H         1.173026   -1.778671   -0.502229 H        1 UNL1     0.2101
     49 H         -2.002059   1.022135   -0.866155 H        1 UNL1     0.2100
     50 H         -2.780666   -3.222832   -1.301805 H        1 UNL1     0.2102
@<TRIPOS>BOND
     1     1     2    1
     2     1     6    1
     3     2     3    1
     4     3     4    1
     5     3    29    1
     6     3    33    1
     7     4     5    1
     8     5     6    1
     9     5     7    1
    10     5    35    1
    11     7     8    1
    12     8     9   ar
    13     8    13   ar
    14     9    10   ar
    15     9    36    1
    16    10    11   ar
    17    10    26    1
    18    11    12   ar
    19    11    14    1
    20    12    13   ar
    21    12    17    1
    22    13    37    1
    23    14    15    1
    24    14    25    2
    25    15    16    1
    26    15    38    1
    27    15    39    1
    28    16    17    1
    29    16    18    1
    30    16    40    1
    31    18    19   ar
    32    18    23   ar
    33    19    20   ar
    34    19    41    1
    35    20    21   ar
    36    20    42    1
    37    21    22   ar
    38    21    24    1
    39    22    23   ar
    40    22    43    1
    41    23    44    1
    42    24    45    1
    43    26    46    1
    44    27    47    1
    45    28    48    1
    46    29    49    1
    47    30    50    1
    48     1    31    1
    49     1    27    1
    50     2    32    1
    51     2    28    1
    52     4    34    1
    53     4    30    1
