@<TRIPOS>MOLECULE
*****
 50 53 0 0 0
SMALL
GASTEIGER

@<TRIPOS>ATOM
     1 C         -0.421119   -1.46333   1.565927 C.3        1 UNL1     0.1889
     2 C         -0.447578   -0.99799   0.08515 C.3        1 UNL1     0.1342
     3 C         -1.84378   -0.977349   -0.555677 C.3        1 UNL1     0.1174
     4 C         -2.746467   -2.104605   -0.048166 C.3        1 UNL1     0.1456
     5 C         -2.710333   -2.244933   1.484598 C.3        1 UNL1     0.2326
     6 O         -1.370038   -2.457993   1.921728 O.3        1 UNL1     -0.3076
     7 O         -3.365721   -1.165304   2.174662 O.3        1 UNL1     -0.4605
     8 C         -3.973275   -1.492328   3.373604 C.ar        1 UNL1     0.1310
     9 C         -4.782342   -2.612396   3.593054 C.ar        1 UNL1     0.0226
     10 C         -5.34003   -2.866956   4.851659 C.ar        1 UNL1     0.1343
     11 C         -5.082476   -2.019587   5.928447 C.ar        1 UNL1     0.1007
     12 C         -4.309604   -0.875728   5.711558 C.ar        1 UNL1     0.1389
     13 C         -3.751136   -0.618574   4.445297 C.ar        1 UNL1     0.0229
     14 C         -5.577003   -2.285991   7.299076 C.2        1 UNL1     0.1740
     15 C         -5.022496   -1.397399   8.373541 C.3        1 UNL1     0.0520
     16 C         -4.943418   0.022917   7.830949 C.3        1 UNL1     0.1322
     17 O         -4.082376   0.082065   6.672425 O.3        1 UNL1     -0.4828
     18 C         -6.309367   0.686772   7.640676 C.ar        1 UNL1     -0.0067
     19 C         -6.374076   2.057854   7.317941 C.ar        1 UNL1     -0.0516
     20 C         -7.6073   2.706757   7.183606 C.ar        1 UNL1     -0.0198
     21 C         -8.780213   1.998964   7.376306 C.ar        1 UNL1     0.1169
     22 C         -8.749475   0.640193   7.662024 C.ar        1 UNL1     -0.0198
     23 C         -7.516694   -0.013108   7.778241 C.ar        1 UNL1     -0.0516
     24 O         -9.961579   2.673063   7.274493 O.3        1 UNL1     -0.5068
     25 O         -6.328416   -3.216691   7.577754 O.2        1 UNL1     -0.2917
     26 O         -6.120993   -3.975972   4.999189 O.3        1 UNL1     -0.5058
     27 O         -0.412461   -0.391438   2.495313 O.3        1 UNL1     -0.3648
     28 O         0.36639   -1.897415   -0.690218 O.3        1 UNL1     -0.3841
     29 O         -2.443035   0.313279   -0.424122 O.3        1 UNL1     -0.3863
     30 O         -2.323086   -3.352745   -0.638576 O.3        1 UNL1     -0.3829
     31 H         0.542201   -1.961661   1.720067 H        1 UNL1     0.0937
     32 H         0.0   0.0   0.0 H        1 UNL1     0.0671
     33 H         -1.719015   -1.132306   -1.636483 H        1 UNL1     0.0649
     34 H         -3.778914   -1.93112   -0.371212 H        1 UNL1     0.0683
     35 H         -3.260504   -3.174296   1.678181 H        1 UNL1     0.1085
     36 H         -4.974546   -3.338974   2.811221 H        1 UNL1     0.0691
     37 H         -3.153994   0.279437   4.302155 H        1 UNL1     0.0691
     38 H         -4.028814   -1.77577   8.636141 H        1 UNL1     0.0385
     39 H         -5.660436   -1.46659   9.261248 H        1 UNL1     0.0385
     40 H         -4.428039   0.630172   8.587352 H        1 UNL1     0.0789
     41 H         -5.467564   2.637682   7.170679 H        1 UNL1     0.0623
     42 H         -7.64385   3.767089   6.946179 H        1 UNL1     0.0654
     43 H         -9.662236   0.072987   7.800062 H        1 UNL1     0.0654
     44 H         -7.530232   -1.077545   7.991864 H        1 UNL1     0.0623
     45 H         -10.005287   3.325433   7.992282 H        1 UNL1     0.2921
     46 H         -5.889838   -4.426678   5.826742 H        1 UNL1     0.2922
     47 H         0.32093   0.210244   2.30564 H        1 UNL1     0.2126
     48 H         1.295242   -1.704052   -0.458748 H        1 UNL1     0.2101
     49 H         -2.110547   0.90386   -1.118715 H        1 UNL1     0.2100
     50 H         -2.509417   -3.310314   -1.599405 H        1 UNL1     0.2102
@<TRIPOS>BOND
     1     1     2    1
     2     1     6    1
     3     2     3    1
     4     3     4    1
     5     3    29    1
     6     3    33    1
     7     4     5    1
     8     5     6    1
     9     5     7    1
    10     5    35    1
    11     7     8    1
    12     8     9   ar
    13     8    13   ar
    14     9    10   ar
    15     9    36    1
    16    10    11   ar
    17    10    26    1
    18    11    12   ar
    19    11    14    1
    20    12    13   ar
    21    12    17    1
    22    13    37    1
    23    14    15    1
    24    14    25    2
    25    15    16    1
    26    15    38    1
    27    15    39    1
    28    16    17    1
    29    16    18    1
    30    16    40    1
    31    18    19   ar
    32    18    23   ar
    33    19    20   ar
    34    19    41    1
    35    20    21   ar
    36    20    42    1
    37    21    22   ar
    38    21    24    1
    39    22    23   ar
    40    22    43    1
    41    23    44    1
    42    24    45    1
    43    26    46    1
    44    27    47    1
    45    28    48    1
    46    29    49    1
    47    30    50    1
    48     1    31    1
    49     1    27    1
    50     2    32    1
    51     2    28    1
    52     4    34    1
    53     4    30    1
