@<TRIPOS>MOLECULE
*****
 50 53 0 0 0
SMALL
GASTEIGER

@<TRIPOS>ATOM
     1 C         -1.450515   -1.34097   0.931993 C.3        1 UNL1     0.1889
     2 C         -0.873412   -0.592455   -0.299518 C.3        1 UNL1     0.1342
     3 C         -1.875142   0.321541   -1.021746 C.3        1 UNL1     0.1174
     4 C         -3.300901   -0.23544   -1.011625 C.3        1 UNL1     0.1456
     5 C         -3.728443   -0.73781   0.379488 C.3        1 UNL1     0.2326
     6 O         -2.813361   -1.729178   0.840665 O.3        1 UNL1     -0.3076
     7 O         -3.942311   0.321012   1.330528 O.3        1 UNL1     -0.4605
     8 C         -4.915268   0.089997   2.286308 C.ar        1 UNL1     0.1310
     9 C         -6.18903   -0.431866   2.036329 C.ar        1 UNL1     0.0226
     10 C         -7.100514   -0.645905   3.07714 C.ar        1 UNL1     0.1343
     11 C         -6.751403   -0.365264   4.397444 C.ar        1 UNL1     0.1007
     12 C         -5.497182   0.194629   4.654803 C.ar        1 UNL1     0.1389
     13 C         -4.58184   0.412219   3.607791 C.ar        1 UNL1     0.0229
     14 C         -7.644241   -0.650319   5.544501 C.2        1 UNL1     0.1740
     15 C         -7.025725   -0.495622   6.902829 C.3        1 UNL1     0.0520
     16 C         -6.136863   0.740382   6.889543 C.3        1 UNL1     0.1322
     17 O         -5.090718   0.609076   5.901915 O.3        1 UNL1     -0.4828
     18 C         -6.913743   2.0573   6.819467 C.ar        1 UNL1     -0.0067
     19 C         -6.22945   3.249095   6.503903 C.ar        1 UNL1     -0.0516
     20 C         -6.900611   4.47744   6.477952 C.ar        1 UNL1     -0.0198
     21 C         -8.251408   4.528179   6.772235 C.ar        1 UNL1     0.1169
     22 C         -8.959694   3.367215   7.053894 C.ar        1 UNL1     -0.0198
     23 C         -8.292657   2.136339   7.061834 C.ar        1 UNL1     -0.0516
     24 O         -8.863254   5.747212   6.774158 O.3        1 UNL1     -0.5068
     25 O         -8.793587   -1.065011   5.419931 O.2        1 UNL1     -0.2917
     26 O         -8.327029   -1.156331   2.766157 O.3        1 UNL1     -0.5058
     27 O         -1.170254   -0.699393   2.165938 O.3        1 UNL1     -0.3648
     28 O         -0.418541   -1.568828   -1.254763 O.3        1 UNL1     -0.3841
     29 O         -1.798811   1.65631   -0.517071 O.3        1 UNL1     -0.3863
     30 O         -3.387932   -1.331609   -1.947856 O.3        1 UNL1     -0.3829
     31 H         -0.916261   -2.29515   0.996734 H        1 UNL1     0.0937
     32 H         0.0   0.0   0.0 H        1 UNL1     0.0671
     33 H         -1.568061   0.38974   -2.074728 H        1 UNL1     0.0649
     34 H         -4.004836   0.532527   -1.350895 H        1 UNL1     0.0683
     35 H         -4.68321   -1.246095   0.19525 H        1 UNL1     0.1085
     36 H         -6.500484   -0.722612   1.039041 H        1 UNL1     0.0691
     37 H         -3.612177   0.850293   3.834366 H        1 UNL1     0.0691
     38 H         -6.441919   -1.399776   7.105813 H        1 UNL1     0.0385
     39 H         -7.820521   -0.426   7.653317 H        1 UNL1     0.0385
     40 H         -5.605442   0.767274   7.850474 H        1 UNL1     0.0789
     41 H         -5.167126   3.237073   6.27813 H        1 UNL1     0.0623
     42 H         -6.359349   5.391064   6.244846 H        1 UNL1     0.0654
     43 H         -10.020857   3.39364   7.271026 H        1 UNL1     0.0654
     44 H         -8.879423   1.248164   7.275601 H        1 UNL1     0.0623
     45 H         -8.454286   6.294544   7.464005 H        1 UNL1     0.2921
     46 H         -8.485265   -1.95884   3.288032 H        1 UNL1     0.2922
     47 H         -0.218236   -0.555519   2.259855 H        1 UNL1     0.2126
     48 H         0.342647   -2.025243   -0.847319 H        1 UNL1     0.2101
     49 H         -0.960701   2.063977   -0.787577 H        1 UNL1     0.2100
     50 H         -3.279353   -0.966566   -2.850445 H        1 UNL1     0.2102
@<TRIPOS>BOND
     1     1     2    1
     2     1     6    1
     3     2     3    1
     4     3     4    1
     5     3    29    1
     6     3    33    1
     7     4     5    1
     8     5     6    1
     9     5     7    1
    10     5    35    1
    11     7     8    1
    12     8     9   ar
    13     8    13   ar
    14     9    10   ar
    15     9    36    1
    16    10    11   ar
    17    10    26    1
    18    11    12   ar
    19    11    14    1
    20    12    13   ar
    21    12    17    1
    22    13    37    1
    23    14    15    1
    24    14    25    2
    25    15    16    1
    26    15    38    1
    27    15    39    1
    28    16    17    1
    29    16    18    1
    30    16    40    1
    31    18    19   ar
    32    18    23   ar
    33    19    20   ar
    34    19    41    1
    35    20    21   ar
    36    20    42    1
    37    21    22   ar
    38    21    24    1
    39    22    23   ar
    40    22    43    1
    41    23    44    1
    42    24    45    1
    43    26    46    1
    44    27    47    1
    45    28    48    1
    46    29    49    1
    47    30    50    1
    48     1    31    1
    49     1    27    1
    50     2    32    1
    51     2    28    1
    52     4    34    1
    53     4    30    1
