@<TRIPOS>MOLECULE
*****
 50 53 0 0 0
SMALL
GASTEIGER

@<TRIPOS>ATOM
     1 C         -0.33073   -1.356267   1.67987 C.3        1 UNL1     0.1889
     2 C         -0.466214   -0.976491   0.180752 C.3        1 UNL1     0.1342
     3 C         -1.909328   -0.947905   -0.345621 C.3        1 UNL1     0.1174
     4 C         -2.797715   -2.01437   0.299776 C.3        1 UNL1     0.1456
     5 C         -2.639414   -2.067157   1.830305 C.3        1 UNL1     0.2326
     6 O         -1.274029   -2.297689   2.17008 O.3        1 UNL1     -0.3076
     7 O         -3.205974   -0.928989   2.504771 O.3        1 UNL1     -0.4605
     8 C         -3.775599   -1.178242   3.74046 C.ar        1 UNL1     0.1310
     9 C         -4.639738   -2.238216   4.035448 C.ar        1 UNL1     0.0226
     10 C         -5.152482   -2.416317   5.325904 C.ar        1 UNL1     0.1343
     11 C         -4.79427   -1.551685   6.359315 C.ar        1 UNL1     0.1007
     12 C         -3.964664   -0.465652   6.06765 C.ar        1 UNL1     0.1389
     13 C         -3.451343   -0.285263   4.769424 C.ar        1 UNL1     0.0229
     14 C         -5.239529   -1.741842   7.759222 C.2        1 UNL1     0.1740
     15 C         -4.582848   -0.85457   8.77562 C.3        1 UNL1     0.0520
     16 C         -4.4435   0.539558   8.179845 C.3        1 UNL1     0.1322
     17 O         -3.635425   0.50721   6.98275 O.3        1 UNL1     -0.4828
     18 C         -5.774234   1.280193   8.027099 C.ar        1 UNL1     -0.0067
     19 C         -6.075159   1.918997   6.806612 C.ar        1 UNL1     -0.0516
     20 C         -7.261925   2.644792   6.649227 C.ar        1 UNL1     -0.0198
     21 C         -8.150503   2.745209   7.704771 C.ar        1 UNL1     0.1169
     22 C         -7.897841   2.099334   8.908036 C.ar        1 UNL1     -0.0198
     23 C         -6.719842   1.358126   9.059642 C.ar        1 UNL1     -0.0516
     24 O         -9.277951   3.491916   7.52675 O.3        1 UNL1     -0.5068
     25 O         -6.03198   -2.614546   8.104034 O.2        1 UNL1     -0.2917
     26 O         -5.991285   -3.469367   5.547443 O.3        1 UNL1     -0.5058
     27 O         -0.216262   -0.233394   2.539427 O.3        1 UNL1     -0.3648
     28 O         0.256244   -1.944874   -0.60219 O.3        1 UNL1     -0.3841
     29 O         -2.460154   0.366783   -0.24404 O.3        1 UNL1     -0.3863
     30 O         -2.4587   -3.307466   -0.246725 O.3        1 UNL1     -0.3829
     31 H         0.627999   -1.875632   1.785594 H        1 UNL1     0.0937
     32 H         0.0   0.0   0.0 H        1 UNL1     0.0671
     33 H         -1.878227   -1.168873   -1.421691 H        1 UNL1     0.0649
     34 H         -3.848106   -1.826658   0.051093 H        1 UNL1     0.0683
     35 H         -3.19703   -2.965615   2.123079 H        1 UNL1     0.1085
     36 H         -4.911737   -2.976732   3.289303 H        1 UNL1     0.0691
     37 H         -2.808366   0.568837   4.567961 H        1 UNL1     0.0691
     38 H         -3.602676   -1.28498   9.006999 H        1 UNL1     0.0385
     39 H         -5.181708   -0.854945   9.69276 H        1 UNL1     0.0385
     40 H         -3.857663   1.138182   8.890454 H        1 UNL1     0.0789
     41 H         -5.389751   1.862799   5.965952 H        1 UNL1     0.0623
     42 H         -7.477012   3.142835   5.707048 H        1 UNL1     0.0654
     43 H         -8.593961   2.158906   9.736153 H        1 UNL1     0.0654
     44 H         -6.559735   0.857759   10.009823 H        1 UNL1     0.0623
     45 H         -9.013703   4.410664   7.357072 H        1 UNL1     0.2921
     46 H         -5.635006   -4.022268   6.26073 H        1 UNL1     0.2922
     47 H         0.515232   0.332426   2.255483 H        1 UNL1     0.2126
     48 H         1.197057   -1.858802   -0.354813 H        1 UNL1     0.2101
     49 H         -2.027256   0.956167   -0.882021 H        1 UNL1     0.2100
     50 H         -2.701476   -3.306738   -1.195815 H        1 UNL1     0.2102
@<TRIPOS>BOND
     1     1     2    1
     2     1     6    1
     3     2     3    1
     4     3     4    1
     5     3    29    1
     6     3    33    1
     7     4     5    1
     8     5     6    1
     9     5     7    1
    10     5    35    1
    11     7     8    1
    12     8     9   ar
    13     8    13   ar
    14     9    10   ar
    15     9    36    1
    16    10    11   ar
    17    10    26    1
    18    11    12   ar
    19    11    14    1
    20    12    13   ar
    21    12    17    1
    22    13    37    1
    23    14    15    1
    24    14    25    2
    25    15    16    1
    26    15    38    1
    27    15    39    1
    28    16    17    1
    29    16    18    1
    30    16    40    1
    31    18    19   ar
    32    18    23   ar
    33    19    20   ar
    34    19    41    1
    35    20    21   ar
    36    20    42    1
    37    21    22   ar
    38    21    24    1
    39    22    23   ar
    40    22    43    1
    41    23    44    1
    42    24    45    1
    43    26    46    1
    44    27    47    1
    45    28    48    1
    46    29    49    1
    47    30    50    1
    48     1    31    1
    49     1    27    1
    50     2    32    1
    51     2    28    1
    52     4    34    1
    53     4    30    1
