@<TRIPOS>MOLECULE
*****
 50 53 0 0 0
SMALL
GASTEIGER

@<TRIPOS>ATOM
     1 C         0.326367   -0.618037   2.069377 C.3        1 UNL1     0.1889
     2 C         0.021764   -0.931145   0.579705 C.3        1 UNL1     0.1342
     3 C         -1.286213   -1.700909   0.340701 C.3        1 UNL1     0.1174
     4 C         -1.597515   -2.702644   1.455481 C.3        1 UNL1     0.1456
     5 C         -1.418571   -2.097393   2.859765 C.3        1 UNL1     0.2326
     6 O         -0.091397   -1.59798   3.008302 O.3        1 UNL1     -0.3076
     7 O         -2.428522   -1.13016   3.200029 O.3        1 UNL1     -0.4605
     8 C         -2.763393   -1.049096   4.539737 C.ar        1 UNL1     0.1310
     9 C         -3.011685   -2.139506   5.380366 C.ar        1 UNL1     0.0226
     10 C         -3.327931   -1.954425   6.731527 C.ar        1 UNL1     0.1343
     11 C         -3.380237   -0.674112   7.280986 C.ar        1 UNL1     0.1007
     12 C         -3.174531   0.42442   6.44212 C.ar        1 UNL1     0.1389
     13 C         -2.859165   0.238167   5.082972 C.ar        1 UNL1     0.0229
     14 C         -3.627041   -0.424868   8.720124 C.2        1 UNL1     0.1740
     15 C         -3.427935   0.990319   9.177454 C.3        1 UNL1     0.0520
     16 C         -3.987563   1.923902   8.112938 C.3        1 UNL1     0.1322
     17 O         -3.308164   1.73048   6.852749 O.3        1 UNL1     -0.4828
     18 C         -5.515189   1.906246   8.01929 C.ar        1 UNL1     -0.0067
     19 C         -6.130151   1.767444   6.758033 C.ar        1 UNL1     -0.0516
     20 C         -7.524149   1.794949   6.631638 C.ar        1 UNL1     -0.0198
     21 C         -8.31223   1.967639   7.755441 C.ar        1 UNL1     0.1169
     22 C         -7.737129   2.073509   9.015159 C.ar        1 UNL1     -0.0198
     23 C         -6.343813   2.027533   9.144042 C.ar        1 UNL1     -0.0516
     24 O         -9.664664   2.027343   7.588829 O.3        1 UNL1     -0.5068
     25 O         -3.898735   -1.313428   9.523323 O.2        1 UNL1     -0.2917
     26 O         -3.560093   -3.059558   7.497272 O.3        1 UNL1     -0.5058
     27 O         -0.066092   0.68681   2.46452 O.3        1 UNL1     -0.3648
     28 O         1.094157   -1.735143   0.054094 O.3        1 UNL1     -0.3841
     29 O         -2.366249   -0.799612   0.089065 O.3        1 UNL1     -0.3863
     30 O         -0.720548   -3.842793   1.326332 O.3        1 UNL1     -0.3829
     31 H         1.417068   -0.614105   2.171525 H        1 UNL1     0.0937
     32 H         -0.0   0.0   0.0 H        1 UNL1     0.0671
     33 H         -1.169184   -2.281693   -0.584887 H        1 UNL1     0.0649
     34 H         -2.623034   -3.073413   1.349458 H        1 UNL1     0.0683
     35 H         -1.512456   -2.958708   3.532967 H        1 UNL1     0.1085
     36 H         -2.931707   -3.161705   5.027048 H        1 UNL1     0.0691
     37 H         -2.704613   1.109888   4.450746 H        1 UNL1     0.0691
     38 H         -2.352432   1.146159   9.313592 H        1 UNL1     0.0385
     39 H         -3.918744   1.12658   10.147155 H        1 UNL1     0.0385
     40 H         -3.726531   2.948325   8.411169 H        1 UNL1     0.0789
     41 H         -5.533344   1.639853   5.859594 H        1 UNL1     0.0623
     42 H         -7.986029   1.6988   5.652131 H        1 UNL1     0.0654
     43 H         -8.345463   2.193984   9.9036 H        1 UNL1     0.0654
     44 H         -5.928946   2.102716   10.144581 H        1 UNL1     0.0623
     45 H         -9.869748   2.781879   7.013215 H        1 UNL1     0.2921
     46 H         -2.956005   -3.05978   8.256541 H        1 UNL1     0.2922
     47 H         0.348823   1.348505   1.893674 H        1 UNL1     0.2126
     48 H         1.906964   -1.198505   0.125491 H        1 UNL1     0.2101
     49 H         -2.244249   -0.370843   -0.772948 H        1 UNL1     0.2100
     50 H         -0.942706   -4.300766   0.489302 H        1 UNL1     0.2102
@<TRIPOS>BOND
     1     1     2    1
     2     1     6    1
     3     2     3    1
     4     3     4    1
     5     3    29    1
     6     3    33    1
     7     4     5    1
     8     5     6    1
     9     5     7    1
    10     5    35    1
    11     7     8    1
    12     8     9   ar
    13     8    13   ar
    14     9    10   ar
    15     9    36    1
    16    10    11   ar
    17    10    26    1
    18    11    12   ar
    19    11    14    1
    20    12    13   ar
    21    12    17    1
    22    13    37    1
    23    14    15    1
    24    14    25    2
    25    15    16    1
    26    15    38    1
    27    15    39    1
    28    16    17    1
    29    16    18    1
    30    16    40    1
    31    18    19   ar
    32    18    23   ar
    33    19    20   ar
    34    19    41    1
    35    20    21   ar
    36    20    42    1
    37    21    22   ar
    38    21    24    1
    39    22    23   ar
    40    22    43    1
    41    23    44    1
    42    24    45    1
    43    26    46    1
    44    27    47    1
    45    28    48    1
    46    29    49    1
    47    30    50    1
    48     1    31    1
    49     1    27    1
    50     2    32    1
    51     2    28    1
    52     4    34    1
    53     4    30    1
