@<TRIPOS>MOLECULE
*****
 50 53 0 0 0
SMALL
GASTEIGER

@<TRIPOS>ATOM
     1 C         -0.354293   -1.33847   1.689313 C.3        1 UNL1     0.1889
     2 C         -0.474211   -0.971713   0.185634 C.3        1 UNL1     0.1342
     3 C         -1.912469   -0.938582   -0.353607 C.3        1 UNL1     0.1174
     4 C         -2.813467   -1.993206   0.293764 C.3        1 UNL1     0.1456
     5 C         -2.668846   -2.032853   1.826042 C.3        1 UNL1     0.2326
     6 O         -1.308023   -2.269137   2.179877 O.3        1 UNL1     -0.3076
     7 O         -3.233723   -0.884817   2.485016 O.3        1 UNL1     -0.4605
     8 C         -3.751596   -1.105012   3.748681 C.ar        1 UNL1     0.1310
     9 C         -4.581675   -2.171759   4.10968 C.ar        1 UNL1     0.0226
     10 C         -5.042176   -2.317945   5.423632 C.ar        1 UNL1     0.1343
     11 C         -4.664015   -1.413246   6.414771 C.ar        1 UNL1     0.1007
     12 C         -3.868862   -0.321036   6.057571 C.ar        1 UNL1     0.1389
     13 C         -3.40812   -0.172804   4.735764 C.ar        1 UNL1     0.0229
     14 C         -5.052767   -1.566585   7.835867 C.2        1 UNL1     0.1740
     15 C         -4.377518   -0.633898   8.79799 C.3        1 UNL1     0.0520
     16 C         -4.28979   0.742614   8.153417 C.3        1 UNL1     0.1322
     17 O         -3.526325   0.687395   6.928205 O.3        1 UNL1     -0.4828
     18 C         -5.640568   1.451367   8.027749 C.ar        1 UNL1     -0.0067
     19 C         -6.007678   2.028679   6.794803 C.ar        1 UNL1     -0.0516
     20 C         -7.214562   2.725005   6.658709 C.ar        1 UNL1     -0.0198
     21 C         -8.057674   2.857037   7.747542 C.ar        1 UNL1     0.1169
     22 C         -7.739385   2.27101   8.96578 C.ar        1 UNL1     -0.0198
     23 C         -6.541202   1.558868   9.097186 C.ar        1 UNL1     -0.0516
     24 O         -9.206637   3.574388   7.587262 O.3        1 UNL1     -0.5068
     25 O         -5.813307   -2.443156   8.23797 O.2        1 UNL1     -0.2917
     26 O         -5.849822   -3.379658   5.710094 O.3        1 UNL1     -0.5058
     27 O         -0.239895   -0.208459   2.539474 O.3        1 UNL1     -0.3648
     28 O         0.24862   -1.951996   -0.582002 O.3        1 UNL1     -0.3841
     29 O         -2.45546   0.380557   -0.268957 O.3        1 UNL1     -0.3863
     30 O         -2.47826   -3.29349   -0.237826 O.3        1 UNL1     -0.3829
     31 H         0.600027   -1.863081   1.80821 H        1 UNL1     0.0937
     32 H         0.0   0.0   0.0 H        1 UNL1     0.0671
     33 H         -1.873464   -1.169701   -1.427284 H        1 UNL1     0.0649
     34 H         -3.860391   -1.800952   0.034167 H        1 UNL1     0.0683
     35 H         -3.234913   -2.924904   2.12217 H        1 UNL1     0.1085
     36 H         -4.865663   -2.939386   3.398189 H        1 UNL1     0.0691
     37 H         -2.791191   0.686874   4.483086 H        1 UNL1     0.0691
     38 H         -3.380579   -1.037044   9.005624 H        1 UNL1     0.0385
     39 H         -4.941689   -0.616331   9.736702 H        1 UNL1     0.0385
     40 H         -3.69063   1.375518   8.821968 H        1 UNL1     0.0789
     41 H         -5.358933   1.946871   5.927573 H        1 UNL1     0.0623
     42 H         -7.480861   3.175884   5.70592 H        1 UNL1     0.0654
     43 H         -8.399449   2.355425   9.820824 H        1 UNL1     0.0654
     44 H         -6.32942   1.105036   10.060529 H        1 UNL1     0.0623
     45 H         -8.96922   4.481456   7.335115 H        1 UNL1     0.2921
     46 H         -5.455008   -3.902685   6.425619 H        1 UNL1     0.2922
     47 H         0.510457   0.33915   2.269368 H        1 UNL1     0.2126
     48 H         1.180982   -1.89899   -0.296304 H        1 UNL1     0.2101
     49 H         -2.007295   0.963197   -0.902576 H        1 UNL1     0.2100
     50 H         -2.749142   -3.313393   -1.179069 H        1 UNL1     0.2102
@<TRIPOS>BOND
     1     1     2    1
     2     1     6    1
     3     2     3    1
     4     3     4    1
     5     3    29    1
     6     3    33    1
     7     4     5    1
     8     5     6    1
     9     5     7    1
    10     5    35    1
    11     7     8    1
    12     8     9   ar
    13     8    13   ar
    14     9    10   ar
    15     9    36    1
    16    10    11   ar
    17    10    26    1
    18    11    12   ar
    19    11    14    1
    20    12    13   ar
    21    12    17    1
    22    13    37    1
    23    14    15    1
    24    14    25    2
    25    15    16    1
    26    15    38    1
    27    15    39    1
    28    16    17    1
    29    16    18    1
    30    16    40    1
    31    18    19   ar
    32    18    23   ar
    33    19    20   ar
    34    19    41    1
    35    20    21   ar
    36    20    42    1
    37    21    22   ar
    38    21    24    1
    39    22    23   ar
    40    22    43    1
    41    23    44    1
    42    24    45    1
    43    26    46    1
    44    27    47    1
    45    28    48    1
    46    29    49    1
    47    30    50    1
    48     1    31    1
    49     1    27    1
    50     2    32    1
    51     2    28    1
    52     4    34    1
    53     4    30    1
