@<TRIPOS>MOLECULE
*****
 50 53 0 0 0
SMALL
GASTEIGER

@<TRIPOS>ATOM
     1 C         -0.332391   -1.328337   1.701717 C.3        1 UNL1     0.1889
     2 C         -0.462493   -0.975403   0.195579 C.3        1 UNL1     0.1342
     3 C         -1.903197   -0.962874   -0.337977 C.3        1 UNL1     0.1174
     4 C         -2.789651   -2.022148   0.321762 C.3        1 UNL1     0.1456
     5 C         -2.638413   -2.04749   1.853705 C.3        1 UNL1     0.2326
     6 O         -1.273601   -2.265555   2.203854 O.3        1 UNL1     -0.3076
     7 O         -3.213511   -0.90045   2.505535 O.3        1 UNL1     -0.4605
     8 C         -3.723346   -1.115872   3.773285 C.ar        1 UNL1     0.1310
     9 C         -4.539605   -2.188926   4.146886 C.ar        1 UNL1     0.0226
     10 C         -4.992702   -2.32927   5.464045 C.ar        1 UNL1     0.1343
     11 C         -4.62061   -1.412   6.445882 C.ar        1 UNL1     0.1007
     12 C         -3.839549   -0.313851   6.076023 C.ar        1 UNL1     0.1389
     13 C         -3.38627   -0.171525   4.75099 C.ar        1 UNL1     0.0229
     14 C         -5.001415   -1.557774   7.869923 C.2        1 UNL1     0.1740
     15 C         -4.332704   -0.609379   8.821195 C.3        1 UNL1     0.0520
     16 C         -4.263511   0.762562   8.164728 C.3        1 UNL1     0.1322
     17 O         -3.504787   0.705719   6.93665 O.3        1 UNL1     -0.4828
     18 C         -5.622834   1.454796   8.039117 C.ar        1 UNL1     -0.0067
     19 C         -6.001863   2.017475   6.803017 C.ar        1 UNL1     -0.0516
     20 C         -7.217207   2.698835   6.666446 C.ar        1 UNL1     -0.0198
     21 C         -8.057041   2.830425   7.757862 C.ar        1 UNL1     0.1169
     22 C         -7.726794   2.25835   8.979544 C.ar        1 UNL1     -0.0198
     23 C         -6.519991   1.561039   9.111599 C.ar        1 UNL1     -0.0516
     24 O         -9.214813   3.533263   7.596673 O.3        1 UNL1     -0.5068
     25 O         -5.750136   -2.439533   8.282725 O.2        1 UNL1     -0.2917
     26 O         -5.786909   -3.397663   5.76297 O.3        1 UNL1     -0.5058
     27 O         -0.227288   -0.190117   2.542072 O.3        1 UNL1     -0.3648
     28 O         0.268221   -1.953833   -0.566941 O.3        1 UNL1     -0.3841
     29 O         -2.460652   0.350745   -0.261945 O.3        1 UNL1     -0.3863
     30 O         -2.441979   -3.322943   -0.200488 O.3        1 UNL1     -0.3829
     31 H         0.628244   -1.841205   1.820988 H        1 UNL1     0.0937
     32 H         0.0   0.0   0.0 H        1 UNL1     0.0671
     33 H         -1.865924   -1.202417   -1.409868 H        1 UNL1     0.0649
     34 H         -3.83971   -1.843807   0.064914 H        1 UNL1     0.0683
     35 H         -3.193207   -2.943355   2.159497 H        1 UNL1     0.1085
     36 H         -4.817885   -2.965708   3.443117 H        1 UNL1     0.0691
     37 H         -2.780309   0.692965   4.488386 H        1 UNL1     0.0691
     38 H         -3.33033   -0.999377   9.027777 H        1 UNL1     0.0385
     39 H         -4.892962   -0.590329   9.762219 H        1 UNL1     0.0385
     40 H         -3.66873   1.407863   8.825291 H        1 UNL1     0.0789
     41 H         -5.355994   1.935757   5.933635 H        1 UNL1     0.0623
     42 H         -7.492772   3.138603   5.711104 H        1 UNL1     0.0654
     43 H         -8.384064   2.342445   9.836769 H        1 UNL1     0.0654
     44 H         -6.298858   1.117784   10.077762 H        1 UNL1     0.0623
     45 H         -8.988874   4.44082   7.335885 H        1 UNL1     0.2921
     46 H         -5.383043   -3.910109   6.481095 H        1 UNL1     0.2922
     47 H         0.515758   0.363622   2.264375 H        1 UNL1     0.2126
     48 H         1.201072   -1.888006   -0.285538 H        1 UNL1     0.2101
     49 H         -2.021632   0.933114   -0.902181 H        1 UNL1     0.2100
     50 H         -2.675003   -3.337991   -1.151901 H        1 UNL1     0.2102
@<TRIPOS>BOND
     1     1     2    1
     2     1     6    1
     3     2     3    1
     4     3     4    1
     5     3    29    1
     6     3    33    1
     7     4     5    1
     8     5     6    1
     9     5     7    1
    10     5    35    1
    11     7     8    1
    12     8     9   ar
    13     8    13   ar
    14     9    10   ar
    15     9    36    1
    16    10    11   ar
    17    10    26    1
    18    11    12   ar
    19    11    14    1
    20    12    13   ar
    21    12    17    1
    22    13    37    1
    23    14    15    1
    24    14    25    2
    25    15    16    1
    26    15    38    1
    27    15    39    1
    28    16    17    1
    29    16    18    1
    30    16    40    1
    31    18    19   ar
    32    18    23   ar
    33    19    20   ar
    34    19    41    1
    35    20    21   ar
    36    20    42    1
    37    21    22   ar
    38    21    24    1
    39    22    23   ar
    40    22    43    1
    41    23    44    1
    42    24    45    1
    43    26    46    1
    44    27    47    1
    45    28    48    1
    46    29    49    1
    47    30    50    1
    48     1    31    1
    49     1    27    1
    50     2    32    1
    51     2    28    1
    52     4    34    1
    53     4    30    1
