@<TRIPOS>MOLECULE
*****
 50 53 0 0 0
SMALL
GASTEIGER

@<TRIPOS>ATOM
     1 C         -0.354191   -1.339004   1.688911 C.3        1 UNL1     0.1889
     2 C         -0.473996   -0.971879   0.185314 C.3        1 UNL1     0.1342
     3 C         -1.91219   -0.938961   -0.354113 C.3        1 UNL1     0.1174
     4 C         -2.813015   -1.993978   0.292857 C.3        1 UNL1     0.1456
     5 C         -2.66859   -2.033995   1.825144 C.3        1 UNL1     0.2326
     6 O         -1.307757   -2.270036   2.179101 O.3        1 UNL1     -0.3076
     7 O         -3.23384   -0.886272   2.484345 O.3        1 UNL1     -0.4605
     8 C         -3.751829   -1.106928   3.747882 C.ar        1 UNL1     0.1310
     9 C         -4.581693   -2.173975   4.108487 C.ar        1 UNL1     0.0226
     10 C         -5.042337   -2.320622   5.422339 C.ar        1 UNL1     0.1343
     11 C         -4.664533   -1.416092   6.413767 C.ar        1 UNL1     0.1007
     12 C         -3.869601   -0.323591   6.056963 C.ar        1 UNL1     0.1389
     13 C         -3.408717   -0.174896   4.735257 C.ar        1 UNL1     0.0229
     14 C         -5.053438   -1.569902   7.83477 C.2        1 UNL1     0.1740
     15 C         -4.37855   -0.637302   8.797231 C.3        1 UNL1     0.0520
     16 C         -4.291075   0.739402   8.153032 C.3        1 UNL1     0.1322
     17 O         -3.527431   0.684694   6.92791 O.3        1 UNL1     -0.4828
     18 C         -5.642011   1.447854   8.027369 C.ar        1 UNL1     -0.0067
     19 C         -6.007893   2.027835   6.795312 C.ar        1 UNL1     -0.0516
     20 C         -7.214918   2.723947   6.659366 C.ar        1 UNL1     -0.0198
     21 C         -8.059393   2.853113   7.747486 C.ar        1 UNL1     0.1169
     22 C         -7.74231   2.26443   8.964758 C.ar        1 UNL1     -0.0198
     23 C         -6.543974   1.552509   9.095968 C.ar        1 UNL1     -0.0516
     24 O         -9.208477   3.570331   7.587472 O.3        1 UNL1     -0.5068
     25 O         -5.813817   -2.446767   8.236539 O.2        1 UNL1     -0.2917
     26 O         -5.849758   -3.38261   5.70841 O.3        1 UNL1     -0.5058
     27 O         -0.240186   -0.209189   2.539386 O.3        1 UNL1     -0.3648
     28 O         0.24918   -1.951781   -0.582484 O.3        1 UNL1     -0.3841
     29 O         -2.455517   0.380022   -0.269189 O.3        1 UNL1     -0.3863
     30 O         -2.477414   -3.294039   -0.23903 O.3        1 UNL1     -0.3829
     31 H         0.600242   -1.86341   1.807799 H        1 UNL1     0.0937
     32 H         0.0   0.0   0.0 H        1 UNL1     0.0671
     33 H         -1.872982   -1.169786   -1.427846 H        1 UNL1     0.0649
     34 H         -3.859951   -1.801914   0.033169 H        1 UNL1     0.0683
     35 H         -3.234477   -2.926263   2.120961 H        1 UNL1     0.1085
     36 H         -4.865396   -2.941485   3.396755 H        1 UNL1     0.0691
     37 H         -2.791967   0.685001   4.48289 H        1 UNL1     0.0691
     38 H         -3.381539   -1.040257   9.004893 H        1 UNL1     0.0385
     39 H         -4.942853   -0.620122   9.735871 H        1 UNL1     0.0385
     40 H         -3.692162   1.372276   8.821832 H        1 UNL1     0.0789
     41 H         -5.358073   1.948299   5.928675 H        1 UNL1     0.0623
     42 H         -7.480271   3.176895   5.707296 H        1 UNL1     0.0654
     43 H         -8.403437   2.346596   9.8192 H        1 UNL1     0.0654
     44 H         -6.33315   1.096559   10.058521 H        1 UNL1     0.0623
     45 H         -8.97101   4.479526   7.343155 H        1 UNL1     0.2921
     46 H         -5.454912   -3.905729   6.423851 H        1 UNL1     0.2922
     47 H         0.510066   0.338676   2.269526 H        1 UNL1     0.2126
     48 H         1.181491   -1.89862   -0.296646 H        1 UNL1     0.2101
     49 H         -2.00753   0.962898   -0.902715 H        1 UNL1     0.2100
     50 H         -2.706535   -3.298439   -1.191499 H        1 UNL1     0.2102
@<TRIPOS>BOND
     1     1     2    1
     2     1     6    1
     3     2     3    1
     4     3     4    1
     5     3    29    1
     6     3    33    1
     7     4     5    1
     8     5     6    1
     9     5     7    1
    10     5    35    1
    11     7     8    1
    12     8     9   ar
    13     8    13   ar
    14     9    10   ar
    15     9    36    1
    16    10    11   ar
    17    10    26    1
    18    11    12   ar
    19    11    14    1
    20    12    13   ar
    21    12    17    1
    22    13    37    1
    23    14    15    1
    24    14    25    2
    25    15    16    1
    26    15    38    1
    27    15    39    1
    28    16    17    1
    29    16    18    1
    30    16    40    1
    31    18    19   ar
    32    18    23   ar
    33    19    20   ar
    34    19    41    1
    35    20    21   ar
    36    20    42    1
    37    21    22   ar
    38    21    24    1
    39    22    23   ar
    40    22    43    1
    41    23    44    1
    42    24    45    1
    43    26    46    1
    44    27    47    1
    45    28    48    1
    46    29    49    1
    47    30    50    1
    48     1    31    1
    49     1    27    1
    50     2    32    1
    51     2    28    1
    52     4    34    1
    53     4    30    1
