@<TRIPOS>MOLECULE
*****
 50 53 0 0 0
SMALL
GASTEIGER

@<TRIPOS>ATOM
     1 C         -0.005674   -1.109795   1.881257 C.3        1 UNL1     0.1889
     2 C         -0.266846   -1.003267   0.354698 C.3        1 UNL1     0.1342
     3 C         -1.708393   -1.318941   -0.072803 C.3        1 UNL1     0.1174
     4 C         -2.355039   -2.41191   0.781823 C.3        1 UNL1     0.1456
     5 C         -2.13185   -2.191914   2.289189 C.3        1 UNL1     0.2326
     6 O         -0.735622   -2.115878   2.567819 O.3        1 UNL1     -0.3076
     7 O         -2.876645   -1.082102   2.822966 O.3        1 UNL1     -0.4605
     8 C         -3.28039   -1.200702   4.140711 C.ar        1 UNL1     0.1310
     9 C         -3.868987   -2.335618   4.708883 C.ar        1 UNL1     0.0226
     10 C         -4.228483   -2.364128   6.061603 C.ar        1 UNL1     0.1343
     11 C         -3.986049   -1.26576   6.885408 C.ar        1 UNL1     0.1007
     12 C         -3.436436   -0.112011   6.320102 C.ar        1 UNL1     0.1389
     13 C         -3.077481   -0.082657   4.959322 C.ar        1 UNL1     0.0229
     14 C         -4.268698   -1.271728   8.339447 C.2        1 UNL1     0.1740
     15 C         -3.742027   -0.095564   9.108086 C.3        1 UNL1     0.0520
     16 C         -3.954602   1.159804   8.273328 C.3        1 UNL1     0.1322
     17 O         -3.254867   1.062262   7.013198 O.3        1 UNL1     -0.4828
     18 C         -5.421812   1.578902   8.15342 C.ar        1 UNL1     -0.0067
     19 C         -5.952305   1.887756   6.884011 C.ar        1 UNL1     -0.0516
     20 C         -7.276611   2.319922   6.7447 C.ar        1 UNL1     -0.0198
     21 C         -8.076605   2.454061   7.865344 C.ar        1 UNL1     0.1169
     22 C         -7.592951   2.125493   9.12509 C.ar        1 UNL1     -0.0198
     23 C         -6.274318   1.675654   9.262594 C.ar        1 UNL1     -0.0516
     24 O         -9.349399   2.913787   7.694909 O.3        1 UNL1     -0.5068
     25 O         -4.82414   -2.20289   8.916426 O.2        1 UNL1     -0.2917
     26 O         -4.799668   -3.501274   6.553773 O.3        1 UNL1     -0.5058
     27 O         -0.072236   0.137197   2.554582 O.3        1 UNL1     -0.3648
     28 O         0.594874   -1.937377   -0.32175 O.3        1 UNL1     -0.3841
     29 O         -2.492652   -0.125786   -0.131563 O.3        1 UNL1     -0.3863
     30 O         -1.799544   -3.692816   0.412505 O.3        1 UNL1     -0.3829
     31 H         1.036995   -1.424518   1.999028 H        1 UNL1     0.0937
     32 H         0.0   0.0   0.0 H        1 UNL1     0.0671
     33 H         -1.676972   -1.698501   -1.10366 H        1 UNL1     0.0649
     34 H         -3.430628   -2.458329   0.578466 H        1 UNL1     0.0683
     35 H         -2.498852   -3.118127   2.748883 H        1 UNL1     0.1085
     36 H         -4.032324   -3.241163   4.134923 H        1 UNL1     0.0691
     37 H         -2.652265   0.828109   4.543164 H        1 UNL1     0.0691
     38 H         -2.676932   -0.271035   9.29331 H        1 UNL1     0.0385
     39 H         -4.252985   -0.041008   10.075414 H        1 UNL1     0.0385
     40 H         -3.458364   1.986393   8.799653 H        1 UNL1     0.0789
     41 H         -5.341981   1.799373   5.98995 H        1 UNL1     0.0623
     42 H         -7.670443   2.566434   5.761776 H        1 UNL1     0.0654
     43 H         -8.215451   2.212493   10.007606 H        1 UNL1     0.0654
     44 H         -5.932824   1.417734   10.260443 H        1 UNL1     0.0623
     45 H         -9.304984   3.803515   7.308738 H        1 UNL1     0.2921
     46 H         -4.277532   -3.82706   7.303872 H        1 UNL1     0.2922
     47 H         0.541506   0.767848   2.152762 H        1 UNL1     0.2126
     48 H         1.511845   -1.66669   -0.122689 H        1 UNL1     0.2101
     49 H         -2.197407   0.42704   -0.872514 H        1 UNL1     0.2100
     50 H         -2.069127   -3.883755   -0.509764 H        1 UNL1     0.2102
@<TRIPOS>BOND
     1     1     2    1
     2     1     6    1
     3     2     3    1
     4     3     4    1
     5     3    29    1
     6     3    33    1
     7     4     5    1
     8     5     6    1
     9     5     7    1
    10     5    35    1
    11     7     8    1
    12     8     9   ar
    13     8    13   ar
    14     9    10   ar
    15     9    36    1
    16    10    11   ar
    17    10    26    1
    18    11    12   ar
    19    11    14    1
    20    12    13   ar
    21    12    17    1
    22    13    37    1
    23    14    15    1
    24    14    25    2
    25    15    16    1
    26    15    38    1
    27    15    39    1
    28    16    17    1
    29    16    18    1
    30    16    40    1
    31    18    19   ar
    32    18    23   ar
    33    19    20   ar
    34    19    41    1
    35    20    21   ar
    36    20    42    1
    37    21    22   ar
    38    21    24    1
    39    22    23   ar
    40    22    43    1
    41    23    44    1
    42    24    45    1
    43    26    46    1
    44    27    47    1
    45    28    48    1
    46    29    49    1
    47    30    50    1
    48     1    31    1
    49     1    27    1
    50     2    32    1
    51     2    28    1
    52     4    34    1
    53     4    30    1
