@<TRIPOS>MOLECULE
*****
 50 53 0 0 0
SMALL
GASTEIGER

@<TRIPOS>ATOM
     1 C         -0.306798   -1.317879   1.714606 C.3        1 UNL1     0.1889
     2 C         -0.448488   -0.979764   0.206116 C.3        1 UNL1     0.1342
     3 C         -1.891649   -0.991098   -0.320782 C.3        1 UNL1     0.1174
     4 C         -2.760814   -2.056367   0.352176 C.3        1 UNL1     0.1456
     5 C         -2.602261   -2.066426   1.883556 C.3        1 UNL1     0.2326
     6 O         -1.233067   -2.263203   2.229177 O.3        1 UNL1     -0.3076
     7 O         -3.189693   -0.921571   2.528188 O.3        1 UNL1     -0.4605
     8 C         -3.691231   -1.132915   3.799927 C.ar        1 UNL1     0.1310
     9 C         -4.491632   -2.213425   4.186138 C.ar        1 UNL1     0.0226
     10 C         -4.937218   -2.348532   5.506403 C.ar        1 UNL1     0.1343
     11 C         -4.573108   -1.418125   6.478826 C.ar        1 UNL1     0.1007
     12 C         -3.808218   -0.312955   6.096299 C.ar        1 UNL1     0.1389
     13 C         -3.362508   -0.175931   4.768143 C.ar        1 UNL1     0.0229
     14 C         -4.945884   -1.5568   7.905698 C.2        1 UNL1     0.1740
     15 C         -4.285724   -0.59162   8.845998 C.3        1 UNL1     0.0520
     16 C         -4.237474   0.775485   8.177677 C.3        1 UNL1     0.1322
     17 O         -3.483303   0.718217   6.946817 O.3        1 UNL1     -0.4828
     18 C         -5.606354   1.448643   8.052171 C.ar        1 UNL1     -0.0067
     19 C         -5.990788   2.011406   6.817779 C.ar        1 UNL1     -0.0516
     20 C         -7.215524   2.675813   6.681583 C.ar        1 UNL1     -0.0198
     21 C         -8.059512   2.790352   7.771716 C.ar        1 UNL1     0.1169
     22 C         -7.723688   2.217558   8.99154 C.ar        1 UNL1     -0.0198
     23 C         -6.507253   1.537099   9.123129 C.ar        1 UNL1     -0.0516
     24 O         -9.226939   3.477176   7.611126 O.3        1 UNL1     -0.5068
     25 O         -5.681115   -2.444814   8.329197 O.2        1 UNL1     -0.2917
     26 O         -5.71595   -3.424725   5.817805 O.3        1 UNL1     -0.5058
     27 O         -0.213119   -0.171126   2.544647 O.3        1 UNL1     -0.3648
     28 O         0.291781   -1.95491   -0.551378 O.3        1 UNL1     -0.3841
     29 O         -2.466299   0.315568   -0.253434 O.3        1 UNL1     -0.3863
     30 O         -2.398134   -3.356874   -0.160497 O.3        1 UNL1     -0.3829
     31 H         0.661156   -1.816819   1.833785 H        1 UNL1     0.0937
     32 H         0.0   0.0   0.0 H        1 UNL1     0.0671
     33 H         -1.856063   -1.23939   -1.390737 H        1 UNL1     0.0649
     34 H         -3.814329   -1.894297   0.098721 H        1 UNL1     0.0683
     35 H         -3.143602   -2.966941   2.199628 H        1 UNL1     0.1085
     36 H         -4.762612   -2.999761   3.490174 H        1 UNL1     0.0691
     37 H         -2.769155   0.694211   4.495605 H        1 UNL1     0.0691
     38 H         -3.277411   -0.966598   9.051481 H        1 UNL1     0.0385
     39 H         -4.842172   -0.571963   9.789268 H        1 UNL1     0.0385
     40 H         -3.648469   1.434163   8.830163 H        1 UNL1     0.0789
     41 H         -5.34194   1.942934   5.949472 H        1 UNL1     0.0623
     42 H         -7.495339   3.115895   5.727621 H        1 UNL1     0.0654
     43 H         -8.383945   2.288296   9.847675 H        1 UNL1     0.0654
     44 H         -6.281838   1.092698   10.087774 H        1 UNL1     0.0623
     45 H         -9.013356   4.39128   7.36311 H        1 UNL1     0.2921
     46 H         -5.302985   -3.924904   6.539395 H        1 UNL1     0.2922
     47 H         0.518586   0.392125   2.256173 H        1 UNL1     0.2126
     48 H         1.227473   -1.862589   -0.287388 H        1 UNL1     0.2101
     49 H         -2.043889   0.895916   -0.906549 H        1 UNL1     0.2100
     50 H         -2.640461   -3.385252   -1.109278 H        1 UNL1     0.2102
@<TRIPOS>BOND
     1     1     2    1
     2     1     6    1
     3     2     3    1
     4     3     4    1
     5     3    29    1
     6     3    33    1
     7     4     5    1
     8     5     6    1
     9     5     7    1
    10     5    35    1
    11     7     8    1
    12     8     9   ar
    13     8    13   ar
    14     9    10   ar
    15     9    36    1
    16    10    11   ar
    17    10    26    1
    18    11    12   ar
    19    11    14    1
    20    12    13   ar
    21    12    17    1
    22    13    37    1
    23    14    15    1
    24    14    25    2
    25    15    16    1
    26    15    38    1
    27    15    39    1
    28    16    17    1
    29    16    18    1
    30    16    40    1
    31    18    19   ar
    32    18    23   ar
    33    19    20   ar
    34    19    41    1
    35    20    21   ar
    36    20    42    1
    37    21    22   ar
    38    21    24    1
    39    22    23   ar
    40    22    43    1
    41    23    44    1
    42    24    45    1
    43    26    46    1
    44    27    47    1
    45    28    48    1
    46    29    49    1
    47    30    50    1
    48     1    31    1
    49     1    27    1
    50     2    32    1
    51     2    28    1
    52     4    34    1
    53     4    30    1
