@<TRIPOS>MOLECULE
*****
 50 53 0 0 0
SMALL
GASTEIGER

@<TRIPOS>ATOM
     1 C         -0.337003   -1.33254   1.697519 C.3        1 UNL1     0.1889
     2 C         -0.46291   -0.975938   0.191889 C.3        1 UNL1     0.1342
     3 C         -1.902106   -0.962291   -0.345692 C.3        1 UNL1     0.1174
     4 C         -2.790271   -2.02329   0.308953 C.3        1 UNL1     0.1456
     5 C         -2.643345   -2.052361   1.84125 C.3        1 UNL1     0.2326
     6 O         -1.279496   -2.271105   2.194708 O.3        1 UNL1     -0.3076
     7 O         -3.220433   -0.906994   2.494261 O.3        1 UNL1     -0.4605
     8 C         -3.734446   -1.125741   3.759753 C.ar        1 UNL1     0.1310
     9 C         -4.552056   -2.199683   4.127804 C.ar        1 UNL1     0.0226
     10 C         -5.009482   -2.343491   5.443093 C.ar        1 UNL1     0.1343
     11 C         -4.640495   -1.428902   6.428595 C.ar        1 UNL1     0.1007
     12 C         -3.858091   -0.32987   6.064236 C.ar        1 UNL1     0.1389
     13 C         -3.400457   -0.184059   4.741081 C.ar        1 UNL1     0.0229
     14 C         -5.025981   -1.578437   7.850985 C.2        1 UNL1     0.1740
     15 C         -4.360272   -0.632679   8.806978 C.3        1 UNL1     0.0520
     16 C         -4.28876   0.741004   8.154416 C.3        1 UNL1     0.1322
     17 O         -3.526025   0.687348   6.928682 O.3        1 UNL1     -0.4828
     18 C         -5.647578   1.433751   8.026207 C.ar        1 UNL1     -0.0067
     19 C         -6.02131   2.002239   6.791153 C.ar        1 UNL1     -0.0516
     20 C         -7.236103   2.684171   6.652554 C.ar        1 UNL1     -0.0198
     21 C         -8.080649   2.810564   7.740944 C.ar        1 UNL1     0.1169
     22 C         -7.755636   2.232747   8.961326 C.ar        1 UNL1     -0.0198
     23 C         -6.549363   1.534884   9.095296 C.ar        1 UNL1     -0.0516
     24 O         -9.237766   3.514095   7.578077 O.3        1 UNL1     -0.5068
     25 O         -5.776158   -2.461198   8.258971 O.2        1 UNL1     -0.2917
     26 O         -5.804796   -3.412576   5.736553 O.3        1 UNL1     -0.5058
     27 O         -0.234423   -0.196366   2.540948 O.3        1 UNL1     -0.3648
     28 O         0.270083   -1.952405   -0.570961 O.3        1 UNL1     -0.3841
     29 O         -2.459952   0.351066   -0.268018 O.3        1 UNL1     -0.3863
     30 O         -2.440951   -3.322759   -0.215496 O.3        1 UNL1     -0.3829
     31 H         0.623362   -1.845574   1.818241 H        1 UNL1     0.0937
     32 H         0.0   0.0   0.0 H        1 UNL1     0.0671
     33 H         -1.861781   -1.199205   -1.418057 H        1 UNL1     0.0649
     34 H         -3.839627   -1.844457   0.049585 H        1 UNL1     0.0683
     35 H         -3.198876   -2.949043   2.143285 H        1 UNL1     0.1085
     36 H         -4.828126   -2.974542   3.421051 H        1 UNL1     0.0691
     37 H         -2.793532   0.681051   4.482778 H        1 UNL1     0.0691
     38 H         -3.358629   -1.023362   9.015797 H        1 UNL1     0.0385
     39 H         -4.923607   -0.616074   9.74621 H        1 UNL1     0.0385
     40 H         -3.696066   1.384456   8.818648 H        1 UNL1     0.0789
     41 H         -5.371689   1.924659   5.92419 H        1 UNL1     0.0623
     42 H         -7.507574   3.12843   5.698117 H        1 UNL1     0.0654
     43 H         -8.416607   2.31276   9.816093 H        1 UNL1     0.0654
     44 H         -6.332371   1.087086   10.060302 H        1 UNL1     0.0623
     45 H         -9.010637   4.424366   7.328006 H        1 UNL1     0.2921
     46 H         -5.403348   -3.926996   6.454622 H        1 UNL1     0.2922
     47 H         0.509327   0.358147   2.266701 H        1 UNL1     0.2126
     48 H         1.203085   -1.883234   -0.290862 H        1 UNL1     0.2101
     49 H         -2.019328   0.935013   -0.905709 H        1 UNL1     0.2100
     50 H         -2.671293   -3.335508   -1.167595 H        1 UNL1     0.2102
@<TRIPOS>BOND
     1     1     2    1
     2     1     6    1
     3     2     3    1
     4     3     4    1
     5     3    29    1
     6     3    33    1
     7     4     5    1
     8     5     6    1
     9     5     7    1
    10     5    35    1
    11     7     8    1
    12     8     9   ar
    13     8    13   ar
    14     9    10   ar
    15     9    36    1
    16    10    11   ar
    17    10    26    1
    18    11    12   ar
    19    11    14    1
    20    12    13   ar
    21    12    17    1
    22    13    37    1
    23    14    15    1
    24    14    25    2
    25    15    16    1
    26    15    38    1
    27    15    39    1
    28    16    17    1
    29    16    18    1
    30    16    40    1
    31    18    19   ar
    32    18    23   ar
    33    19    20   ar
    34    19    41    1
    35    20    21   ar
    36    20    42    1
    37    21    22   ar
    38    21    24    1
    39    22    23   ar
    40    22    43    1
    41    23    44    1
    42    24    45    1
    43    26    46    1
    44    27    47    1
    45    28    48    1
    46    29    49    1
    47    30    50    1
    48     1    31    1
    49     1    27    1
    50     2    32    1
    51     2    28    1
    52     4    34    1
    53     4    30    1
