@<TRIPOS>MOLECULE
*****
 50 53 0 0 0
SMALL
GASTEIGER

@<TRIPOS>ATOM
     1 C         -0.406267   -1.970808   -0.84951 C.3        1 UNL1     0.1889
     2 C         -0.04653   -1.041694   0.340984 C.3        1 UNL1     0.1342
     3 C         1.267173   -1.394271   1.055365 C.3        1 UNL1     0.1174
     4 C         1.533023   -2.901095   1.099206 C.3        1 UNL1     0.1456
     5 C         1.302982   -3.580891   -0.262896 C.3        1 UNL1     0.2326
     6 O         -0.027316   -3.332348   -0.711675 O.3        1 UNL1     -0.3076
     7 O         2.302319   -3.250505   -1.244471 O.3        1 UNL1     -0.4605
     8 C         2.111664   -3.783278   -2.506744 C.ar        1 UNL1     0.1310
     9 C         1.019486   -4.56403   -2.900285 C.ar        1 UNL1     0.0226
     10 C         0.907965   -5.044478   -4.21049 C.ar        1 UNL1     0.1343
     11 C         1.874963   -4.735598   -5.166182 C.ar        1 UNL1     0.1007
     12 C         2.990855   -3.99113   -4.774598 C.ar        1 UNL1     0.1389
     13 C         3.104078   -3.51038   -3.456459 C.ar        1 UNL1     0.0229
     14 C         1.764921   -5.146347   -6.5851 C.2        1 UNL1     0.1740
     15 C         2.774352   -4.541693   -7.516225 C.3        1 UNL1     0.0520
     16 C         4.123347   -4.512189   -6.811031 C.3        1 UNL1     0.1322
     17 O         4.054045   -3.720644   -5.604497 O.3        1 UNL1     -0.4828
     18 C         4.752877   -5.895157   -6.627141 C.ar        1 UNL1     -0.0067
     19 C         5.082145   -6.662792   -7.763157 C.ar        1 UNL1     -0.0516
     20 C         5.615245   -7.950452   -7.63012 C.ar        1 UNL1     -0.0198
     21 C         5.816493   -8.483427   -6.36946 C.ar        1 UNL1     0.1169
     22 C         5.533369   -7.739101   -5.23163 C.ar        1 UNL1     -0.0198
     23 C         5.017518   -6.444362   -5.364314 C.ar        1 UNL1     -0.0516
     24 O         6.301912   -9.754905   -6.279395 O.3        1 UNL1     -0.5068
     25 O         0.867999   -5.868502   -7.012311 O.2        1 UNL1     -0.2917
     26 O         -0.181334   -5.801488   -4.529785 O.3        1 UNL1     -0.5058
     27 O         -0.025013   -1.44621   -2.111346 O.3        1 UNL1     -0.3648
     28 O         -1.100755   -1.123353   1.318045 O.3        1 UNL1     -0.3841
     29 O         2.358718   -0.655538   0.503155 O.3        1 UNL1     -0.3863
     30 O         0.658061   -3.508333   2.0746 O.3        1 UNL1     -0.3829
     31 H         -1.500033   -2.012707   -0.894224 H        1 UNL1     0.0937
     32 H         0.0   0.0   0.0 H        1 UNL1     0.0671
     33 H         1.183432   -1.055879   2.097573 H        1 UNL1     0.0649
     34 H         2.560672   -3.090113   1.428768 H        1 UNL1     0.0683
     35 H         1.368698   -4.652801   -0.038016 H        1 UNL1     0.1085
     36 H         0.206757   -4.792084   -2.219417 H        1 UNL1     0.0691
     37 H         3.983195   -2.933945   -3.176512 H        1 UNL1     0.0691
     38 H         2.434527   -3.529745   -7.76119 H        1 UNL1     0.0385
     39 H         2.803873   -5.126118   -8.442159 H        1 UNL1     0.0385
     40 H         4.816529   -3.961497   -7.461229 H        1 UNL1     0.0789
     41 H         4.925105   -6.270554   -8.763726 H        1 UNL1     0.0623
     42 H         5.85397   -8.537036   -8.513829 H        1 UNL1     0.0654
     43 H         5.701203   -8.141058   -4.239575 H        1 UNL1     0.0654
     44 H         4.817708   -5.887306   -4.454034 H        1 UNL1     0.0623
     45 H         7.142635   -9.797212   -6.763247 H        1 UNL1     0.2921
     46 H         -0.628289   -6.084495   -3.716427 H        1 UNL1     0.2922
     47 H         -0.324238   -0.530286   -2.197409 H        1 UNL1     0.2126
     48 H         -1.907768   -1.390135   0.83712 H        1 UNL1     0.2101
     49 H         3.138185   -1.22819   0.423817 H        1 UNL1     0.2100
     50 H         -0.066365   -3.957389   1.591621 H        1 UNL1     0.2102
@<TRIPOS>BOND
     1     1     2    1
     2     1     6    1
     3     2     3    1
     4     3     4    1
     5     3    29    1
     6     3    33    1
     7     4     5    1
     8     5     6    1
     9     5     7    1
    10     5    35    1
    11     7     8    1
    12     8     9   ar
    13     8    13   ar
    14     9    10   ar
    15     9    36    1
    16    10    11   ar
    17    10    26    1
    18    11    12   ar
    19    11    14    1
    20    12    13   ar
    21    12    17    1
    22    13    37    1
    23    14    15    1
    24    14    25    2
    25    15    16    1
    26    15    38    1
    27    15    39    1
    28    16    17    1
    29    16    18    1
    30    16    40    1
    31    18    19   ar
    32    18    23   ar
    33    19    20   ar
    34    19    41    1
    35    20    21   ar
    36    20    42    1
    37    21    22   ar
    38    21    24    1
    39    22    23   ar
    40    22    43    1
    41    23    44    1
    42    24    45    1
    43    26    46    1
    44    27    47    1
    45    28    48    1
    46    29    49    1
    47    30    50    1
    48     1    31    1
    49     1    27    1
    50     2    32    1
    51     2    28    1
    52     4    34    1
    53     4    30    1
