@<TRIPOS>MOLECULE
*****
 50 53 0 0 0
SMALL
GASTEIGER

@<TRIPOS>ATOM
     1 C         -0.621273   -1.026912   1.824904 C.3        1 UNL1     0.1889
     2 C         -0.914661   -0.131194   0.591392 C.3        1 UNL1     0.1342
     3 C         -1.497376   1.2504   0.926218 C.3        1 UNL1     0.1174
     4 C         -2.42579   1.223939   2.142961 C.3        1 UNL1     0.1456
     5 C         -1.827062   0.440371   3.325293 C.3        1 UNL1     0.2326
     6 O         -1.516265   -0.890454   2.91887 O.3        1 UNL1     -0.3076
     7 O         -0.721872   1.111784   3.95702 O.3        1 UNL1     -0.4605
     8 C         0.41333   1.271099   3.182769 C.ar        1 UNL1     0.1310
     9 C         1.001547   0.277377   2.392947 C.ar        1 UNL1     0.0226
     10 C         2.144243   0.54224   1.628751 C.ar        1 UNL1     0.1343
     11 C         2.713114   1.815069   1.617317 C.ar        1 UNL1     0.1007
     12 C         2.158885   2.804522   2.433772 C.ar        1 UNL1     0.1389
     13 C         1.011473   2.53723   3.204117 C.ar        1 UNL1     0.0229
     14 C         3.870055   2.172431   0.764127 C.2        1 UNL1     0.1740
     15 C         4.209364   3.633032   0.708774 C.3        1 UNL1     0.0520
     16 C         4.056354   4.21651   2.106665 C.3        1 UNL1     0.1322
     17 O         2.70119   4.059971   2.582159 O.3        1 UNL1     -0.4828
     18 C         5.131778   3.749293   3.090482 C.ar        1 UNL1     -0.0067
     19 C         4.795491   2.815488   4.092048 C.ar        1 UNL1     -0.0516
     20 C         5.742696   2.403125   5.036888 C.ar        1 UNL1     -0.0198
     21 C         7.024616   2.921575   4.995442 C.ar        1 UNL1     0.1169
     22 C         7.395236   3.817334   4.000909 C.ar        1 UNL1     -0.0198
     23 C         6.453383   4.21584   3.044791 C.ar        1 UNL1     -0.0516
     24 O         7.909313   2.52531   5.954966 O.3        1 UNL1     -0.5068
     25 O         4.478262   1.358513   0.074122 O.2        1 UNL1     -0.2917
     26 O         2.669574   -0.470798   0.880843 O.3        1 UNL1     -0.5058
     27 O         0.732467   -0.982053   2.246997 O.3        1 UNL1     -0.3648
     28 O         -1.870273   -0.807556   -0.246489 O.3        1 UNL1     -0.3841
     29 O         -0.458021   2.22403   1.044199 O.3        1 UNL1     -0.3863
     30 O         -3.679794   0.613057   1.768809 O.3        1 UNL1     -0.3829
     31 H         -0.768615   -2.063064   1.50124 H        1 UNL1     0.0937
     32 H         0.0   0.0   0.0 H        1 UNL1     0.0671
     33 H         -2.105   1.574581   0.069819 H        1 UNL1     0.0649
     34 H         -2.650812   2.247022   2.464001 H        1 UNL1     0.0683
     35 H         -2.654728   0.369871   4.042147 H        1 UNL1     0.1085
     36 H         0.574605   -0.71652   2.315429 H        1 UNL1     0.0691
     37 H         0.599981   3.324357   3.832288 H        1 UNL1     0.0691
     38 H         3.517234   4.107374   0.004869 H        1 UNL1     0.0385
     39 H         5.226622   3.750726   0.320044 H        1 UNL1     0.0385
     40 H         4.193386   5.302953   2.020738 H        1 UNL1     0.0789
     41 H         3.793459   2.400704   4.151517 H        1 UNL1     0.0623
     42 H         5.467843   1.691518   5.811539 H        1 UNL1     0.0654
     43 H         8.400589   4.218079   3.950121 H        1 UNL1     0.0654
     44 H         6.780394   4.908998   2.275739 H        1 UNL1     0.0623
     45 H         8.415777   3.301446   6.24449 H        1 UNL1     0.2921
     46 H         3.55678   -0.222034   0.57688 H        1 UNL1     0.2922
     47 H         0.843014   -1.477551   3.070478 H        1 UNL1     0.2126
     48 H         -2.496454   -0.127664   -0.561729 H        1 UNL1     0.2101
     49 H         -0.811374   3.03799   1.437144 H        1 UNL1     0.2100
     50 H         -3.535282   -0.35332   1.69849 H        1 UNL1     0.2102
@<TRIPOS>BOND
     1     1     2    1
     2     1     6    1
     3     2     3    1
     4     3     4    1
     5     3    29    1
     6     3    33    1
     7     4     5    1
     8     5     6    1
     9     5     7    1
    10     5    35    1
    11     7     8    1
    12     8     9   ar
    13     8    13   ar
    14     9    10   ar
    15     9    36    1
    16    10    11   ar
    17    10    26    1
    18    11    12   ar
    19    11    14    1
    20    12    13   ar
    21    12    17    1
    22    13    37    1
    23    14    15    1
    24    14    25    2
    25    15    16    1
    26    15    38    1
    27    15    39    1
    28    16    17    1
    29    16    18    1
    30    16    40    1
    31    18    19   ar
    32    18    23   ar
    33    19    20   ar
    34    19    41    1
    35    20    21   ar
    36    20    42    1
    37    21    22   ar
    38    21    24    1
    39    22    23   ar
    40    22    43    1
    41    23    44    1
    42    24    45    1
    43    26    46    1
    44    27    47    1
    45    28    48    1
    46    29    49    1
    47    30    50    1
    48     1    31    1
    49     1    27    1
    50     2    32    1
    51     2    28    1
    52     4    34    1
    53     4    30    1
