@<TRIPOS>MOLECULE
*****
 50 53 0 0 0
SMALL
GASTEIGER

@<TRIPOS>ATOM
     1 C         -1.830363   -0.512612   1.076014 C.3        1 UNL1     0.1889
     2 C         -0.413866   0.119044   1.009012 C.3        1 UNL1     0.1342
     3 C         0.587281   -0.441706   2.030643 C.3        1 UNL1     0.1174
     4 C         -0.068867   -0.811306   3.363303 C.3        1 UNL1     0.1456
     5 C         -1.366702   -1.618631   3.178335 C.3        1 UNL1     0.2326
     6 O         -2.283693   -0.885991   2.368869 O.3        1 UNL1     -0.3076
     7 O         -1.144825   -2.960885   2.708819 O.3        1 UNL1     -0.4605
     8 C         -2.276874   -3.677955   2.365591 C.ar        1 UNL1     0.1310
     9 C         -2.379034   -4.563979   1.287711 C.ar        1 UNL1     0.0226
     10 C         -3.567459   -5.258228   1.031652 C.ar        1 UNL1     0.1343
     11 C         -4.676203   -5.101117   1.86222 C.ar        1 UNL1     0.1007
     12 C         -4.599469   -4.188207   2.917441 C.ar        1 UNL1     0.1389
     13 C         -3.40525   -3.48828   3.173125 C.ar        1 UNL1     0.0229
     14 C         -5.928845   -5.872212   1.687707 C.2        1 UNL1     0.1740
     15 C         -6.930876   -5.742738   2.797085 C.3        1 UNL1     0.0520
     16 C         -6.961483   -4.289987   3.251548 C.3        1 UNL1     0.1322
     17 O         -5.663424   -3.875322   3.731302 O.3        1 UNL1     -0.4828
     18 C         -7.594888   -3.339   2.233145 C.ar        1 UNL1     -0.0067
     19 C         -7.183901   -1.990703   2.195728 C.ar        1 UNL1     -0.0516
     20 C         -7.776263   -1.083535   1.309097 C.ar        1 UNL1     -0.0198
     21 C         -8.783457   -1.509622   0.461845 C.ar        1 UNL1     0.1169
     22 C         -9.186611   -2.838609   0.451916 C.ar        1 UNL1     -0.0198
     23 C         -8.581613   -3.750106   1.325532 C.ar        1 UNL1     -0.0516
     24 O         -9.363024   -0.58924   -0.361198 O.3        1 UNL1     -0.5068
     25 O         -6.126499   -6.637095   0.747297 O.2        1 UNL1     -0.2917
     26 O         -3.601953   -6.106754   -0.036243 O.3        1 UNL1     -0.5058
     27 O         -2.03171   -1.550839   0.130324 O.3        1 UNL1     -0.3648
     28 O         -0.53248   1.532293   1.25673 O.3        1 UNL1     -0.3841
     29 O         1.338378   -1.518426   1.466143 O.3        1 UNL1     -0.3863
     30 O         -0.374116   0.3974   4.092373 O.3        1 UNL1     -0.3829
     31 H         -2.535938   0.268691   0.773014 H        1 UNL1     0.0937
     32 H         0.0   0.0   0.0 H        1 UNL1     0.0671
     33 H         1.322964   0.345709   2.24621 H        1 UNL1     0.0649
     34 H         0.631359   -1.388041   3.97768 H        1 UNL1     0.0683
     35 H         -1.79657   -1.6631   4.186857 H        1 UNL1     0.1085
     36 H         -1.535506   -4.771961   0.638615 H        1 UNL1     0.0691
     37 H         -3.371657   -2.78238   4.00021 H        1 UNL1     0.0691
     38 H         -6.612439   -6.404199   3.609854 H        1 UNL1     0.0385
     39 H         -7.907994   -6.085543   2.440009 H        1 UNL1     0.0385
     40 H         -7.60979   -4.241371   4.136904 H        1 UNL1     0.0789
     41 H         -6.40169   -1.629416   2.85699 H        1 UNL1     0.0623
     42 H         -7.458877   -0.043748   1.298083 H        1 UNL1     0.0654
     43 H         -9.96398   -3.186269   -0.217966 H        1 UNL1     0.0654
     44 H         -8.91396   -4.782879   1.28345 H        1 UNL1     0.0623
     45 H         -10.183925   -0.968154   -0.715122 H        1 UNL1     0.2921
     46 H         -2.726418   -6.137741   -0.453244 H        1 UNL1     0.2922
     47 H         -2.045345   -1.188703   -0.766633 H        1 UNL1     0.2126
     48 H         -0.349447   1.666074   2.206642 H        1 UNL1     0.2101
     49 H         1.48978   -2.202734   2.137405 H        1 UNL1     0.2100
     50 H         0.052194   1.146335   3.626467 H        1 UNL1     0.2102
@<TRIPOS>BOND
     1     1     2    1
     2     1     6    1
     3     2     3    1
     4     3     4    1
     5     3    29    1
     6     3    33    1
     7     4     5    1
     8     5     6    1
     9     5     7    1
    10     5    35    1
    11     7     8    1
    12     8     9   ar
    13     8    13   ar
    14     9    10   ar
    15     9    36    1
    16    10    11   ar
    17    10    26    1
    18    11    12   ar
    19    11    14    1
    20    12    13   ar
    21    12    17    1
    22    13    37    1
    23    14    15    1
    24    14    25    2
    25    15    16    1
    26    15    38    1
    27    15    39    1
    28    16    17    1
    29    16    18    1
    30    16    40    1
    31    18    19   ar
    32    18    23   ar
    33    19    20   ar
    34    19    41    1
    35    20    21   ar
    36    20    42    1
    37    21    22   ar
    38    21    24    1
    39    22    23   ar
    40    22    43    1
    41    23    44    1
    42    24    45    1
    43    26    46    1
    44    27    47    1
    45    28    48    1
    46    29    49    1
    47    30    50    1
    48     1    31    1
    49     1    27    1
    50     2    32    1
    51     2    28    1
    52     4    34    1
    53     4    30    1
