@<TRIPOS>MOLECULE
*****
 50 53 0 0 0
SMALL
GASTEIGER

@<TRIPOS>ATOM
     1 C         -0.824964   -1.888058   -0.724898 C.3        1 UNL1     0.1889
     2 C         -0.071164   -1.041889   0.336103 C.3        1 UNL1     0.1342
     3 C         1.335289   -1.553617   0.683222 C.3        1 UNL1     0.1174
     4 C         1.436491   -3.080607   0.648936 C.3        1 UNL1     0.1456
     5 C         0.790374   -3.686819   -0.610192 C.3        1 UNL1     0.2326
     6 O         -0.575042   -3.285612   -0.697034 O.3        1 UNL1     -0.3076
     7 O         1.533307   -3.430291   -1.815831 O.3        1 UNL1     -0.4605
     8 C         2.906198   -3.572476   -1.723742 C.ar        1 UNL1     0.1310
     9 C         3.71758   -4.226373   -2.657219 C.ar        1 UNL1     0.0226
     10 C         5.10454   -4.302766   -2.482844 C.ar        1 UNL1     0.1343
     11 C         5.717032   -3.705887   -1.381739 C.ar        1 UNL1     0.1007
     12 C         4.912984   -3.085577   -0.421789 C.ar        1 UNL1     0.1389
     13 C         3.518156   -3.011191   -0.596007 C.ar        1 UNL1     0.0229
     14 C         7.185815   -3.683689   -1.191113 C.2        1 UNL1     0.1740
     15 C         7.682766   -2.810483   -0.076618 C.3        1 UNL1     0.0520
     16 C         6.740485   -2.960544   1.109782 C.3        1 UNL1     0.1322
     17 O         5.399002   -2.560292   0.753001 O.3        1 UNL1     -0.4828
     18 C         6.833187   -4.322592   1.80185 C.ar        1 UNL1     -0.0067
     19 C         8.074986   -4.98825   1.857077 C.ar        1 UNL1     -0.0516
     20 C         8.18506   -6.256078   2.440566 C.ar        1 UNL1     -0.0198
     21 C         7.061875   -6.87065   2.964573 C.ar        1 UNL1     0.1169
     22 C         5.831656   -6.226204   2.955081 C.ar        1 UNL1     -0.0198
     23 C         5.724914   -4.95055   2.388189 C.ar        1 UNL1     -0.0516
     24 O         7.200316   -8.121402   3.490742 O.3        1 UNL1     -0.5068
     25 O         7.972624   -4.267495   -1.93178 O.2        1 UNL1     -0.2917
     26 O         5.83901   -4.955737   -3.429293 O.3        1 UNL1     -0.5058
     27 O         -0.726266   -1.364472   -2.039776 O.3        1 UNL1     -0.3648
     28 O         -0.840665   -1.0453   1.552887 O.3        1 UNL1     -0.3841
     29 O         2.322089   -0.915172   -0.129642 O.3        1 UNL1     -0.3863
     30 O         0.780999   -3.625121   1.814923 O.3        1 UNL1     -0.3829
     31 H         -1.891132   -1.813755   -0.484392 H        1 UNL1     0.0937
     32 H         0.0   0.0   0.0 H        1 UNL1     0.0671
     33 H         1.560348   -1.243246   1.713143 H        1 UNL1     0.0649
     34 H         2.487188   -3.387005   0.699505 H        1 UNL1     0.0683
     35 H         0.793764   -4.766616   -0.4155 H        1 UNL1     0.1085
     36 H         3.308536   -4.661917   -3.562263 H        1 UNL1     0.0691
     37 H         2.91433   -2.52373   0.166404 H        1 UNL1     0.0691
     38 H         7.693977   -1.778791   -0.444058 H        1 UNL1     0.0385
     39 H         8.710516   -3.096149   0.172185 H        1 UNL1     0.0385
     40 H         7.053416   -2.228282   1.866344 H        1 UNL1     0.0789
     41 H         8.96966   -4.531008   1.444599 H        1 UNL1     0.0623
     42 H         9.145879   -6.764182   2.466392 H        1 UNL1     0.0654
     43 H         4.948674   -6.691999   3.376138 H        1 UNL1     0.0654
     44 H         4.750503   -4.472014   2.407454 H        1 UNL1     0.0623
     45 H         7.725541   -8.055311   4.304675 H        1 UNL1     0.2921
     46 H         6.024762   -4.35351   -4.167013 H        1 UNL1     0.2922
     47 H         -1.31929   -1.842717   -2.635985 H        1 UNL1     0.2126
     48 H         -0.331881   -1.565662   2.204112 H        1 UNL1     0.2101
     49 H         2.551222   -1.486183   -0.880134 H        1 UNL1     0.2100
     50 H         0.19955   -4.356326   1.520019 H        1 UNL1     0.2102
@<TRIPOS>BOND
     1     1     2    1
     2     1     6    1
     3     2     3    1
     4     3     4    1
     5     3    29    1
     6     3    33    1
     7     4     5    1
     8     5     6    1
     9     5     7    1
    10     5    35    1
    11     7     8    1
    12     8     9   ar
    13     8    13   ar
    14     9    10   ar
    15     9    36    1
    16    10    11   ar
    17    10    26    1
    18    11    12   ar
    19    11    14    1
    20    12    13   ar
    21    12    17    1
    22    13    37    1
    23    14    15    1
    24    14    25    2
    25    15    16    1
    26    15    38    1
    27    15    39    1
    28    16    17    1
    29    16    18    1
    30    16    40    1
    31    18    19   ar
    32    18    23   ar
    33    19    20   ar
    34    19    41    1
    35    20    21   ar
    36    20    42    1
    37    21    22   ar
    38    21    24    1
    39    22    23   ar
    40    22    43    1
    41    23    44    1
    42    24    45    1
    43    26    46    1
    44    27    47    1
    45    28    48    1
    46    29    49    1
    47    30    50    1
    48     1    31    1
    49     1    27    1
    50     2    32    1
    51     2    28    1
    52     4    34    1
    53     4    30    1
