@<TRIPOS>MOLECULE
*****
 50 53 0 0 0
SMALL
GASTEIGER

@<TRIPOS>ATOM
     1 C         -0.338369   -1.332475   1.697298 C.3        1 UNL1     0.1889
     2 C         -0.466117   -0.974352   0.192184 C.3        1 UNL1     0.1342
     3 C         -1.906379   -0.954998   -0.342359 C.3        1 UNL1     0.1174
     4 C         -2.797091   -2.013161   0.313417 C.3        1 UNL1     0.1456
     5 C         -2.647055   -2.043852   1.84538 C.3        1 UNL1     0.2326
     6 O         -1.283285   -2.267894   2.195817 O.3        1 UNL1     -0.3076
     7 O         -3.218523   -0.896815   2.5004 O.3        1 UNL1     -0.4605
     8 C         -3.73047   -1.114495   3.766912 C.ar        1 UNL1     0.1310
     9 C         -4.551127   -2.185705   4.136144 C.ar        1 UNL1     0.0226
     10 C         -5.006105   -2.328682   5.452372 C.ar        1 UNL1     0.1343
     11 C         -4.631592   -1.41605   6.437604 C.ar        1 UNL1     0.1007
     12 C         -3.846041   -0.319626   6.072161 C.ar        1 UNL1     0.1389
     13 C         -3.390866   -0.174641   4.748066 C.ar        1 UNL1     0.0229
     14 C         -5.014409   -1.565081   7.860768 C.2        1 UNL1     0.1740
     15 C         -4.34313   -0.622335   8.815841 C.3        1 UNL1     0.0520
     16 C         -4.268121   0.751489   8.163968 C.3        1 UNL1     0.1322
     17 O         -3.50835   0.695843   6.936483 O.3        1 UNL1     -0.4828
     18 C         -5.624711   1.449225   8.039254 C.ar        1 UNL1     -0.0067
     19 C         -5.999166   2.019833   6.805397 C.ar        1 UNL1     -0.0516
     20 C         -7.211794   2.70624   6.669961 C.ar        1 UNL1     -0.0198
     21 C         -8.053422   2.835004   7.760332 C.ar        1 UNL1     0.1169
     22 C         -7.727752   2.255252   8.97962 C.ar        1 UNL1     -0.0198
     23 C         -6.523712   1.552948   9.110437 C.ar        1 UNL1     -0.0516
     24 O         -9.208351   3.542816   7.600511 O.3        1 UNL1     -0.5068
     25 O         -5.766853   -2.445379   8.269899 O.2        1 UNL1     -0.2917
     26 O         -5.804617   -3.395067   5.746965 O.3        1 UNL1     -0.5058
     27 O         -0.229809   -0.197282   2.541299 O.3        1 UNL1     -0.3648
     28 O         0.261649   -1.95299   -0.572885 O.3        1 UNL1     -0.3841
     29 O         -2.459192   0.360361   -0.262598 O.3        1 UNL1     -0.3863
     30 O         -2.45369   -3.313546   -0.212669 O.3        1 UNL1     -0.3829
     31 H         0.620341   -1.849146   1.815643 H        1 UNL1     0.0937
     32 H         0.0   0.0   0.0 H        1 UNL1     0.0671
     33 H         -1.869186   -1.191307   -1.41497 H        1 UNL1     0.0649
     34 H         -3.84632   -1.830262   0.056381 H        1 UNL1     0.0683
     35 H         -3.205268   -2.938684   2.14796 H        1 UNL1     0.1085
     36 H         -4.83159   -2.959117   3.429537 H        1 UNL1     0.0691
     37 H         -2.7814   0.68843   4.48893 H        1 UNL1     0.0691
     38 H         -3.342438   -1.016767   9.022158 H        1 UNL1     0.0385
     39 H         -4.904283   -0.604282   9.756351 H        1 UNL1     0.0385
     40 H         -3.671608   1.392378   8.827259 H        1 UNL1     0.0789
     41 H         -5.351786   1.940448   5.936923 H        1 UNL1     0.0623
     42 H         -7.483807   3.152075   5.716414 H        1 UNL1     0.0654
     43 H         -8.3865   2.337118   9.835926 H        1 UNL1     0.0654
     44 H         -6.306166   1.103764   10.074673 H        1 UNL1     0.0623
     45 H         -8.978495   4.452416   7.350491 H        1 UNL1     0.2921
     46 H         -5.404104   -3.910608   6.464752 H        1 UNL1     0.2922
     47 H         0.512879   0.3568   2.263329 H        1 UNL1     0.2126
     48 H         1.19732   -1.879675   -0.302928 H        1 UNL1     0.2101
     49 H         -2.017749   0.94312   -0.900809 H        1 UNL1     0.2100
     50 H         -2.691304   -3.326686   -1.162974 H        1 UNL1     0.2102
@<TRIPOS>BOND
     1     1     2    1
     2     1     6    1
     3     2     3    1
     4     3     4    1
     5     3    29    1
     6     3    33    1
     7     4     5    1
     8     5     6    1
     9     5     7    1
    10     5    35    1
    11     7     8    1
    12     8     9   ar
    13     8    13   ar
    14     9    10   ar
    15     9    36    1
    16    10    11   ar
    17    10    26    1
    18    11    12   ar
    19    11    14    1
    20    12    13   ar
    21    12    17    1
    22    13    37    1
    23    14    15    1
    24    14    25    2
    25    15    16    1
    26    15    38    1
    27    15    39    1
    28    16    17    1
    29    16    18    1
    30    16    40    1
    31    18    19   ar
    32    18    23   ar
    33    19    20   ar
    34    19    41    1
    35    20    21   ar
    36    20    42    1
    37    21    22   ar
    38    21    24    1
    39    22    23   ar
    40    22    43    1
    41    23    44    1
    42    24    45    1
    43    26    46    1
    44    27    47    1
    45    28    48    1
    46    29    49    1
    47    30    50    1
    48     1    31    1
    49     1    27    1
    50     2    32    1
    51     2    28    1
    52     4    34    1
    53     4    30    1
