@<TRIPOS>MOLECULE
*****
 50 53 0 0 0
SMALL
GASTEIGER

@<TRIPOS>ATOM
     1 C         -0.338479   -1.332611   1.69717 C.3        1 UNL1     0.1889
     2 C         -0.466048   -0.97441   0.192059 C.3        1 UNL1     0.1342
     3 C         -1.906236   -0.955166   -0.342688 C.3        1 UNL1     0.1174
     4 C         -2.796936   -2.013457   0.312897 C.3        1 UNL1     0.1456
     5 C         -2.647116   -2.044226   1.844879 C.3        1 UNL1     0.2326
     6 O         -1.283374   -2.268153   2.195497 O.3        1 UNL1     -0.3076
     7 O         -3.218791   -0.897285   2.499887 O.3        1 UNL1     -0.4605
     8 C         -3.730897   -1.115091   3.766313 C.ar        1 UNL1     0.1310
     9 C         -4.551501   -2.186404   4.135363 C.ar        1 UNL1     0.0226
     10 C         -5.006652   -2.329506   5.451517 C.ar        1 UNL1     0.1343
     11 C         -4.63237   -1.416896   6.436858 C.ar        1 UNL1     0.1007
     12 C         -3.846876   -0.320372   6.071592 C.ar        1 UNL1     0.1389
     13 C         -3.391526   -0.175263   4.747572 C.ar        1 UNL1     0.0229
     14 C         -5.015375   -1.56605   7.859958 C.2        1 UNL1     0.1740
     15 C         -4.344326   -0.623295   8.815183 C.3        1 UNL1     0.0520
     16 C         -4.26936   0.750576   8.163404 C.3        1 UNL1     0.1322
     17 O         -3.509408   0.695079   6.936024 O.3        1 UNL1     -0.4828
     18 C         -5.626001   1.448184   8.038538 C.ar        1 UNL1     -0.0067
     19 C         -6.000338   2.01883   6.804662 C.ar        1 UNL1     -0.0516
     20 C         -7.213014   2.705125   6.669094 C.ar        1 UNL1     -0.0198
     21 C         -8.054811   2.83374   7.759353 C.ar        1 UNL1     0.1169
     22 C         -7.729257   2.253946   8.978653 C.ar        1 UNL1     -0.0198
     23 C         -6.525166   1.551754   9.109599 C.ar        1 UNL1     -0.0516
     24 O         -9.209787   3.541446   7.59941 O.3        1 UNL1     -0.5068
     25 O         -5.76779   -2.446448   8.268929 O.2        1 UNL1     -0.2917
     26 O         -5.805101   -3.395988   5.745933 O.3        1 UNL1     -0.5058
     27 O         -0.230152   -0.197457   2.541254 O.3        1 UNL1     -0.3648
     28 O         0.261924   -1.952929   -0.572965 O.3        1 UNL1     -0.3841
     29 O         -2.459191   0.360133   -0.262928 O.3        1 UNL1     -0.3863
     30 O         -2.453331   -3.313776   -0.213218 O.3        1 UNL1     -0.3829
     31 H         0.620265   -1.849194   1.815621 H        1 UNL1     0.0937
     32 H         0.0   0.0   0.0 H        1 UNL1     0.0671
     33 H         -1.868866   -1.191407   -1.415308 H        1 UNL1     0.0649
     34 H         -3.846146   -1.830646   0.055722 H        1 UNL1     0.0683
     35 H         -3.205283   -2.93913   2.147326 H        1 UNL1     0.1085
     36 H         -4.831786   -2.959802   3.428669 H        1 UNL1     0.0691
     37 H         -2.782108   0.687885   4.488574 H        1 UNL1     0.0691
     38 H         -3.343625   -1.017641   9.02162 H        1 UNL1     0.0385
     39 H         -4.905615   -0.605354   9.755615 H        1 UNL1     0.0385
     40 H         -3.673006   1.391483   8.826819 H        1 UNL1     0.0789
     41 H         -5.352825   1.939561   5.936276 H        1 UNL1     0.0623
     42 H         -7.484936   3.15099   5.715535 H        1 UNL1     0.0654
     43 H         -8.388135   2.335696   9.834869 H        1 UNL1     0.0654
     44 H         -6.307713   1.102533   10.07384 H        1 UNL1     0.0623
     45 H         -8.979985   4.451085   7.349477 H        1 UNL1     0.2921
     46 H         -5.404639   -3.911532   6.463746 H        1 UNL1     0.2922
     47 H         0.512521   0.356715   2.263423 H        1 UNL1     0.2126
     48 H         1.19755   -1.879538   -0.30287 H        1 UNL1     0.2101
     49 H         -2.017714   0.942974   -0.901041 H        1 UNL1     0.2100
     50 H         -2.690808   -3.326883   -1.163558 H        1 UNL1     0.2102
@<TRIPOS>BOND
     1     1     2    1
     2     1     6    1
     3     2     3    1
     4     3     4    1
     5     3    29    1
     6     3    33    1
     7     4     5    1
     8     5     6    1
     9     5     7    1
    10     5    35    1
    11     7     8    1
    12     8     9   ar
    13     8    13   ar
    14     9    10   ar
    15     9    36    1
    16    10    11   ar
    17    10    26    1
    18    11    12   ar
    19    11    14    1
    20    12    13   ar
    21    12    17    1
    22    13    37    1
    23    14    15    1
    24    14    25    2
    25    15    16    1
    26    15    38    1
    27    15    39    1
    28    16    17    1
    29    16    18    1
    30    16    40    1
    31    18    19   ar
    32    18    23   ar
    33    19    20   ar
    34    19    41    1
    35    20    21   ar
    36    20    42    1
    37    21    22   ar
    38    21    24    1
    39    22    23   ar
    40    22    43    1
    41    23    44    1
    42    24    45    1
    43    26    46    1
    44    27    47    1
    45    28    48    1
    46    29    49    1
    47    30    50    1
    48     1    31    1
    49     1    27    1
    50     2    32    1
    51     2    28    1
    52     4    34    1
    53     4    30    1
