@<TRIPOS>MOLECULE
*****
 50 53 0 0 0
SMALL
GASTEIGER

@<TRIPOS>ATOM
     1 C         -0.264782   -1.350393   1.696212 C.3        1 UNL1     0.1889
     2 C         -0.432287   -0.989126   0.195756 C.3        1 UNL1     0.1342
     3 C         -1.882456   -1.011456   -0.311174 C.3        1 UNL1     0.1174
     4 C         -2.7276   -2.099628   0.355708 C.3        1 UNL1     0.1456
     5 C         -2.547334   -2.133066   1.884351 C.3        1 UNL1     0.2326
     6 O         -1.170871   -2.316788   2.207562 O.3        1 UNL1     -0.3076
     7 O         -3.14099   -1.007292   2.556308 O.3        1 UNL1     -0.4605
     8 C         -3.631836   -1.249433   3.826728 C.ar        1 UNL1     0.1310
     9 C         -4.410788   -2.350576   4.198237 C.ar        1 UNL1     0.0226
     10 C         -4.846788   -2.516337   5.518211 C.ar        1 UNL1     0.1343
     11 C         -4.494068   -1.59644   6.504729 C.ar        1 UNL1     0.1007
     12 C         -3.75104   -0.471343   6.137509 C.ar        1 UNL1     0.1389
     13 C         -3.314994   -0.303528   4.809679 C.ar        1 UNL1     0.0229
     14 C         -4.856633   -1.766301   7.93086 C.2        1 UNL1     0.1740
     15 C         -4.208707   -0.805792   8.884361 C.3        1 UNL1     0.0520
     16 C         -4.188395   0.573258   8.239562 C.3        1 UNL1     0.1322
     17 O         -3.439959   0.550684   7.004085 O.3        1 UNL1     -0.4828
     18 C         -5.569695   1.22388   8.13267 C.ar        1 UNL1     -0.0067
     19 C         -5.671684   2.569274   7.723128 C.ar        1 UNL1     -0.0516
     20 C         -6.915526   3.208714   7.660379 C.ar        1 UNL1     -0.0198
     21 C         -8.061431   2.517416   8.010857 C.ar        1 UNL1     0.1169
     22 C         -7.996796   1.181768   8.385968 C.ar        1 UNL1     -0.0198
     23 C         -6.755069   0.536682   8.431068 C.ar        1 UNL1     -0.0516
     24 O         -9.250733   3.184191   7.973798 O.3        1 UNL1     -0.5068
     25 O         -5.573652   -2.674483   8.342653 O.2        1 UNL1     -0.2917
     26 O         -5.604553   -3.611489   5.814888 O.3        1 UNL1     -0.5058
     27 O         -0.174867   -0.216474   2.54411 O.3        1 UNL1     -0.3648
     28 O         0.310297   -1.94125   -0.588293 O.3        1 UNL1     -0.3841
     29 O         -2.47366   0.285899   -0.213811 O.3        1 UNL1     -0.3863
     30 O         -2.354692   -3.386302   -0.183828 O.3        1 UNL1     -0.3829
     31 H         0.711395   -1.83793   1.793503 H        1 UNL1     0.0937
     32 H         0.0   0.0   0.0 H        1 UNL1     0.0671
     33 H         -1.858626   -1.241347   -1.385559 H        1 UNL1     0.0649
     34 H         -3.786675   -1.947815   0.119673 H        1 UNL1     0.0683
     35 H         -3.071973   -3.04607   2.192663 H        1 UNL1     0.1085
     36 H         -4.67147   -3.129539   3.490154 H        1 UNL1     0.0691
     37 H         -2.738697   0.581652   4.549233 H        1 UNL1     0.0691
     38 H         -3.192788   -1.166153   9.078206 H        1 UNL1     0.0385
     39 H         -4.760332   -0.812331   9.830641 H        1 UNL1     0.0385
     40 H         -3.607705   1.231039   8.900352 H        1 UNL1     0.0789
     41 H         -4.786064   3.136391   7.451637 H        1 UNL1     0.0623
     42 H         -6.979826   4.250009   7.354471 H        1 UNL1     0.0654
     43 H         -8.889569   0.626609   8.648007 H        1 UNL1     0.0654
     44 H         -6.742842   -0.510306   8.718317 H        1 UNL1     0.0623
     45 H         -9.230521   3.884949   8.645547 H        1 UNL1     0.2921
     46 H         -5.294506   -4.003825   6.646366 H        1 UNL1     0.2922
     47 H         0.534307   0.369697   2.24522 H        1 UNL1     0.2126
     48 H         1.255695   -1.733351   -0.458932 H        1 UNL1     0.2101
     49 H         -2.210846   0.826355   -0.975802 H        1 UNL1     0.2100
     50 H         -2.630408   -3.410572   -1.123564 H        1 UNL1     0.2102
@<TRIPOS>BOND
     1     1     2    1
     2     1     6    1
     3     2     3    1
     4     3     4    1
     5     3    29    1
     6     3    33    1
     7     4     5    1
     8     5     6    1
     9     5     7    1
    10     5    35    1
    11     7     8    1
    12     8     9   ar
    13     8    13   ar
    14     9    10   ar
    15     9    36    1
    16    10    11   ar
    17    10    26    1
    18    11    12   ar
    19    11    14    1
    20    12    13   ar
    21    12    17    1
    22    13    37    1
    23    14    15    1
    24    14    25    2
    25    15    16    1
    26    15    38    1
    27    15    39    1
    28    16    17    1
    29    16    18    1
    30    16    40    1
    31    18    19   ar
    32    18    23   ar
    33    19    20   ar
    34    19    41    1
    35    20    21   ar
    36    20    42    1
    37    21    22   ar
    38    21    24    1
    39    22    23   ar
    40    22    43    1
    41    23    44    1
    42    24    45    1
    43    26    46    1
    44    27    47    1
    45    28    48    1
    46    29    49    1
    47    30    50    1
    48     1    31    1
    49     1    27    1
    50     2    32    1
    51     2    28    1
    52     4    34    1
    53     4    30    1
