@<TRIPOS>MOLECULE
*****
 50 53 0 0 0
SMALL
GASTEIGER

@<TRIPOS>ATOM
     1 C         -0.33762   -1.331476   1.698231 C.3        1 UNL1     0.1889
     2 C         -0.465279   -0.97463   0.192806 C.3        1 UNL1     0.1342
     3 C         -1.905409   -0.957006   -0.34215 C.3        1 UNL1     0.1174
     4 C         -2.795334   -2.015479   0.314194 C.3        1 UNL1     0.1456
     5 C         -2.645695   -2.044852   1.846222 C.3        1 UNL1     0.2326
     6 O         -1.281818   -2.267374   2.197209 O.3        1 UNL1     -0.3076
     7 O         -3.218395   -0.897834   2.500199 O.3        1 UNL1     -0.4605
     8 C         -3.730493   -1.115006   3.766738 C.ar        1 UNL1     0.1310
     9 C         -4.550273   -2.186682   4.136568 C.ar        1 UNL1     0.0226
     10 C         -5.005484   -2.329061   5.452779 C.ar        1 UNL1     0.1343
     11 C         -4.63208   -1.415327   6.437412 C.ar        1 UNL1     0.1007
     12 C         -3.847432   -0.318467   6.07134 C.ar        1 UNL1     0.1389
     13 C         -3.392022   -0.174086   4.747261 C.ar        1 UNL1     0.0229
     14 C         -5.015156   -1.563612   7.860584 C.2        1 UNL1     0.1740
     15 C         -4.345005   -0.619516   8.815115 C.3        1 UNL1     0.0520
     16 C         -4.271072   0.753873   8.162205 C.3        1 UNL1     0.1322
     17 O         -3.51091   0.697977   6.934973 O.3        1 UNL1     -0.4828
     18 C         -5.628265   1.450271   8.036577 C.ar        1 UNL1     -0.0067
     19 C         -6.002901   2.019585   6.802177 C.ar        1 UNL1     -0.0516
     20 C         -7.216118   2.704777   6.665876 C.ar        1 UNL1     -0.0198
     21 C         -8.058167   2.83361   7.755914 C.ar        1 UNL1     0.1169
     22 C         -7.732304   2.255097   8.97574 C.ar        1 UNL1     -0.0198
     23 C         -6.527659   1.553996   9.10743 C.ar        1 UNL1     -0.0516
     24 O         -9.213699   3.540241   7.595228 O.3        1 UNL1     -0.5068
     25 O         -5.766907   -2.444283   8.270185 O.2        1 UNL1     -0.2917
     26 O         -5.803102   -3.395949   5.747974 O.3        1 UNL1     -0.5058
     27 O         -0.230334   -0.195533   2.541387 O.3        1 UNL1     -0.3648
     28 O         0.263595   -1.95319   -0.571306 O.3        1 UNL1     -0.3841
     29 O         -2.459448   0.357907   -0.263557 O.3        1 UNL1     -0.3863
     30 O         -2.450597   -3.315953   -0.210794 O.3        1 UNL1     -0.3829
     31 H         0.621529   -1.847178   1.81724 H        1 UNL1     0.0937
     32 H         0.0   0.0   0.0 H        1 UNL1     0.0671
     33 H         -1.867702   -1.194107   -1.414568 H        1 UNL1     0.0649
     34 H         -3.844659   -1.833738   0.056727 H        1 UNL1     0.0683
     35 H         -3.203173   -2.93996   2.149338 H        1 UNL1     0.1085
     36 H         -4.829831   -2.960895   3.430479 H        1 UNL1     0.0691
     37 H         -2.783274   0.689343   4.487627 H        1 UNL1     0.0691
     38 H         -3.34401   -1.012873   9.022013 H        1 UNL1     0.0385
     39 H         -4.906435   -0.601252   9.755456 H        1 UNL1     0.0385
     40 H         -3.67533   1.395819   8.825166 H        1 UNL1     0.0789
     41 H         -5.355207   1.940123   5.933944 H        1 UNL1     0.0623
     42 H         -7.488275   3.149627   5.71191 H        1 UNL1     0.0654
     43 H         -8.391365   2.33702   9.831799 H        1 UNL1     0.0654
     44 H         -6.309969   1.105754   10.072073 H        1 UNL1     0.0623
     45 H         -8.984606   4.449859   7.344571 H        1 UNL1     0.2921
     46 H         -5.401626   -3.911347   6.465326 H        1 UNL1     0.2922
     47 H         0.51277   0.358305   2.264043 H        1 UNL1     0.2126
     48 H         1.196337   -1.890512   -0.288822 H        1 UNL1     0.2101
     49 H         -2.018361   0.940578   -0.902095 H        1 UNL1     0.2100
     50 H         -2.68271   -3.328127   -1.16247 H        1 UNL1     0.2102
@<TRIPOS>BOND
     1     1     2    1
     2     1     6    1
     3     2     3    1
     4     3     4    1
     5     3    29    1
     6     3    33    1
     7     4     5    1
     8     5     6    1
     9     5     7    1
    10     5    35    1
    11     7     8    1
    12     8     9   ar
    13     8    13   ar
    14     9    10   ar
    15     9    36    1
    16    10    11   ar
    17    10    26    1
    18    11    12   ar
    19    11    14    1
    20    12    13   ar
    21    12    17    1
    22    13    37    1
    23    14    15    1
    24    14    25    2
    25    15    16    1
    26    15    38    1
    27    15    39    1
    28    16    17    1
    29    16    18    1
    30    16    40    1
    31    18    19   ar
    32    18    23   ar
    33    19    20   ar
    34    19    41    1
    35    20    21   ar
    36    20    42    1
    37    21    22   ar
    38    21    24    1
    39    22    23   ar
    40    22    43    1
    41    23    44    1
    42    24    45    1
    43    26    46    1
    44    27    47    1
    45    28    48    1
    46    29    49    1
    47    30    50    1
    48     1    31    1
    49     1    27    1
    50     2    32    1
    51     2    28    1
    52     4    34    1
    53     4    30    1
