@<TRIPOS>MOLECULE
*****
 50 53 0 0 0
SMALL
GASTEIGER

@<TRIPOS>ATOM
     1 C         -0.330521   -1.327626   1.702636 C.3        1 UNL1     0.1889
     2 C         -0.461244   -0.975853   0.19628 C.3        1 UNL1     0.1342
     3 C         -1.902025   -0.965489   -0.337113 C.3        1 UNL1     0.1174
     4 C         -2.787069   -2.025438   0.323433 C.3        1 UNL1     0.1456
     5 C         -2.635619   -2.049575   1.855374 C.3        1 UNL1     0.2326
     6 O         -1.270493   -2.265693   2.205506 O.3        1 UNL1     -0.3076
     7 O         -3.21208   -0.902828   2.506513 O.3        1 UNL1     -0.4605
     8 C         -3.721496   -1.11805   3.774466 C.ar        1 UNL1     0.1310
     9 C         -4.536361   -2.191881   4.148875 C.ar        1 UNL1     0.0226
     10 C         -4.989125   -2.331921   5.466181 C.ar        1 UNL1     0.1343
     11 C         -4.61807   -1.413534   6.447366 C.ar        1 UNL1     0.1007
     12 C         -3.838434   -0.31465   6.076686 C.ar        1 UNL1     0.1389
     13 C         -3.38549   -0.172633   4.751505 C.ar        1 UNL1     0.0229
     14 C         -4.998524   -1.558844   7.871548 C.2        1 UNL1     0.1740
     15 C         -4.330893   -0.608978   8.822112 C.3        1 UNL1     0.0520
     16 C         -4.263502   0.762613   8.164728 C.3        1 UNL1     0.1322
     17 O         -3.504852   0.70591   6.936597 O.3        1 UNL1     -0.4828
     18 C         -5.623708   1.453054   8.03882 C.ar        1 UNL1     -0.0067
     19 C         -6.00364   2.014336   6.802362 C.ar        1 UNL1     -0.0516
     20 C         -7.219855   2.694075   6.665478 C.ar        1 UNL1     -0.0198
     21 C         -8.059677   2.825432   7.756932 C.ar        1 UNL1     0.1169
     22 C         -7.728518   2.254684   8.978988 C.ar        1 UNL1     -0.0198
     23 C         -6.520824   1.558979   9.111368 C.ar        1 UNL1     -0.0516
     24 O         -9.218352   3.526704   7.595405 O.3        1 UNL1     -0.5068
     25 O         -5.746087   -2.441268   8.285022 O.2        1 UNL1     -0.2917
     26 O         -5.781954   -3.401113   5.765907 O.3        1 UNL1     -0.5058
     27 O         -0.226749   -0.188718   2.542224 O.3        1 UNL1     -0.3648
     28 O         0.270609   -1.953869   -0.565679 O.3        1 UNL1     -0.3841
     29 O         -2.461122   0.347479   -0.261885 O.3        1 UNL1     -0.3863
     30 O         -2.437825   -3.326141   -0.197997 O.3        1 UNL1     -0.3829
     31 H         0.630772   -1.839207   1.822133 H        1 UNL1     0.0937
     32 H         0.0   0.0   0.0 H        1 UNL1     0.0671
     33 H         -1.864578   -1.205695   -1.408849 H        1 UNL1     0.0649
     34 H         -3.837382   -1.848587   0.066592 H        1 UNL1     0.0683
     35 H         -3.18925   -2.945934   2.161826 H        1 UNL1     0.1085
     36 H         -4.813748   -2.969479   3.445654 H        1 UNL1     0.0691
     37 H         -2.780647   0.692444   4.488256 H        1 UNL1     0.0691
     38 H         -3.328006   -0.997579   9.028833 H        1 UNL1     0.0385
     39 H         -4.891063   -0.590009   9.76319 H        1 UNL1     0.0385
     40 H         -3.669454   1.409098   8.824792 H        1 UNL1     0.0789
     41 H         -5.357809   1.932774   5.932936 H        1 UNL1     0.0623
     42 H         -7.496124   3.132784   5.709852 H        1 UNL1     0.0654
     43 H         -8.385755   2.338598   9.836256 H        1 UNL1     0.0654
     44 H         -6.298982   1.116723   10.077826 H        1 UNL1     0.0623
     45 H         -9.96414   2.934774   7.785503 H        1 UNL1     0.2921
     46 H         -5.376712   -3.913303   6.483439 H        1 UNL1     0.2922
     47 H         0.515673   0.365682   2.264178 H        1 UNL1     0.2126
     48 H         1.203231   -1.887417   -0.283662 H        1 UNL1     0.2101
     49 H         -2.02285   0.929996   -0.902498 H        1 UNL1     0.2100
     50 H         -2.670942   -3.342112   -1.149371 H        1 UNL1     0.2102
@<TRIPOS>BOND
     1     1     2    1
     2     1     6    1
     3     2     3    1
     4     3     4    1
     5     3    29    1
     6     3    33    1
     7     4     5    1
     8     5     6    1
     9     5     7    1
    10     5    35    1
    11     7     8    1
    12     8     9   ar
    13     8    13   ar
    14     9    10   ar
    15     9    36    1
    16    10    11   ar
    17    10    26    1
    18    11    12   ar
    19    11    14    1
    20    12    13   ar
    21    12    17    1
    22    13    37    1
    23    14    15    1
    24    14    25    2
    25    15    16    1
    26    15    38    1
    27    15    39    1
    28    16    17    1
    29    16    18    1
    30    16    40    1
    31    18    19   ar
    32    18    23   ar
    33    19    20   ar
    34    19    41    1
    35    20    21   ar
    36    20    42    1
    37    21    22   ar
    38    21    24    1
    39    22    23   ar
    40    22    43    1
    41    23    44    1
    42    24    45    1
    43    26    46    1
    44    27    47    1
    45    28    48    1
    46    29    49    1
    47    30    50    1
    48     1    31    1
    49     1    27    1
    50     2    32    1
    51     2    28    1
    52     4    34    1
    53     4    30    1
