@<TRIPOS>MOLECULE
*****
 50 53 0 0 0
SMALL
GASTEIGER

@<TRIPOS>ATOM
     1 C         -0.683897   -1.858601   0.921245 C.3        1 UNL1     0.1889
     2 C         -0.004046   -1.072298   -0.231782 C.3        1 UNL1     0.1342
     3 C         -0.639986   -1.28374   -1.614293 C.3        1 UNL1     0.1174
     4 C         -1.172274   -2.705311   -1.811583 C.3        1 UNL1     0.1456
     5 C         -1.995641   -3.19956   -0.608192 C.3        1 UNL1     0.2326
     6 O         -1.209193   -3.132754   0.579203 O.3        1 UNL1     -0.3076
     7 O         -3.271478   -2.54613   -0.479392 O.3        1 UNL1     -0.4605
     8 C         -4.293071   -3.310851   0.054537 C.ar        1 UNL1     0.1310
     9 C         -4.591258   -4.629537   -0.305255 C.ar        1 UNL1     0.0226
     10 C         -5.638767   -5.327644   0.307342 C.ar        1 UNL1     0.1343
     11 C         -6.399077   -4.73139   1.312454 C.ar        1 UNL1     0.1007
     12 C         -6.137229   -3.401249   1.651487 C.ar        1 UNL1     0.1389
     13 C         -5.085614   -2.698647   1.033516 C.ar        1 UNL1     0.0229
     14 C         -7.462611   -5.450325   2.051495 C.2        1 UNL1     0.1740
     15 C         -8.022996   -4.7329   3.244315 C.3        1 UNL1     0.0520
     16 C         -8.1711   -3.258659   2.89412 C.3        1 UNL1     0.1322
     17 O         -6.891958   -2.682501   2.549292 O.3        1 UNL1     -0.4828
     18 C         -9.287473   -2.973832   1.886495 C.ar        1 UNL1     -0.0067
     19 C         -9.344129   -1.715376   1.253018 C.ar        1 UNL1     -0.0516
     20 C         -10.378793   -1.405491   0.362287 C.ar        1 UNL1     -0.0198
     21 C         -11.364655   -2.340698   0.10288 C.ar        1 UNL1     0.1169
     22 C         -11.317693   -3.600505   0.685562 C.ar        1 UNL1     -0.0198
     23 C         -10.272991   -3.917195   1.562124 C.ar        1 UNL1     -0.0516
     24 O         -12.377216   -1.989732   -0.740887 O.3        1 UNL1     -0.5068
     25 O         -7.823985   -6.591489   1.77647 O.2        1 UNL1     -0.2917
     26 O         -5.878518   -6.61073   -0.089894 O.3        1 UNL1     -0.5058
     27 O         -1.619557   -1.086707   1.657117 O.3        1 UNL1     -0.3648
     28 O         1.369615   -1.493499   -0.323176 O.3        1 UNL1     -0.3841
     29 O         -1.624902   -0.282439   -1.877863 O.3        1 UNL1     -0.3863
     30 O         -0.059867   -3.603949   -2.013299 O.3        1 UNL1     -0.3829
     31 H         0.102808   -2.092362   1.646868 H        1 UNL1     0.0937
     32 H         0.0   0.0   0.0 H        1 UNL1     0.0671
     33 H         0.142436   -1.129563   -2.370444 H        1 UNL1     0.0649
     34 H         -1.789582   -2.751409   -2.715577 H        1 UNL1     0.0683
     35 H         -2.16261   -4.262957   -0.820763 H        1 UNL1     0.1085
     36 H         -4.001884   -5.167363   -1.039762 H        1 UNL1     0.0691
     37 H         -4.902919   -1.663673   1.314487 H        1 UNL1     0.0691
     38 H         -7.322461   -4.873214   4.074429 H        1 UNL1     0.0385
     39 H         -8.978609   -5.190508   3.522123 H        1 UNL1     0.0385
     40 H         -8.468855   -2.735963   3.813169 H        1 UNL1     0.0789
     41 H         -8.587351   -0.960829   1.446917 H        1 UNL1     0.0623
     42 H         -10.418013   -0.427368   -0.110735 H        1 UNL1     0.0654
     43 H         -12.076289   -4.345675   0.477799 H        1 UNL1     0.0654
     44 H         -10.261877   -4.914512   1.991169 H        1 UNL1     0.0623
     45 H         -12.887859   -1.275304   -0.326695 H        1 UNL1     0.2921
     46 H         -5.855853   -7.197997   0.682126 H        1 UNL1     0.2922
     47 H         -1.202091   -0.278023   1.985159 H        1 UNL1     0.2126
     48 H         1.830837   -1.112841   0.448903 H        1 UNL1     0.2101
     49 H         -1.194337   0.57704   -2.010922 H        1 UNL1     0.2100
     50 H         0.355241   -3.381803   -2.872396 H        1 UNL1     0.2102
@<TRIPOS>BOND
     1     1     2    1
     2     1     6    1
     3     2     3    1
     4     3     4    1
     5     3    29    1
     6     3    33    1
     7     4     5    1
     8     5     6    1
     9     5     7    1
    10     5    35    1
    11     7     8    1
    12     8     9   ar
    13     8    13   ar
    14     9    10   ar
    15     9    36    1
    16    10    11   ar
    17    10    26    1
    18    11    12   ar
    19    11    14    1
    20    12    13   ar
    21    12    17    1
    22    13    37    1
    23    14    15    1
    24    14    25    2
    25    15    16    1
    26    15    38    1
    27    15    39    1
    28    16    17    1
    29    16    18    1
    30    16    40    1
    31    18    19   ar
    32    18    23   ar
    33    19    20   ar
    34    19    41    1
    35    20    21   ar
    36    20    42    1
    37    21    22   ar
    38    21    24    1
    39    22    23   ar
    40    22    43    1
    41    23    44    1
    42    24    45    1
    43    26    46    1
    44    27    47    1
    45    28    48    1
    46    29    49    1
    47    30    50    1
    48     1    31    1
    49     1    27    1
    50     2    32    1
    51     2    28    1
    52     4    34    1
    53     4    30    1
