@<TRIPOS>MOLECULE
*****
 50 53 0 0 0
SMALL
GASTEIGER

@<TRIPOS>ATOM
     1 C         -2.07989   0.36137   0.560602 C.3        1 UNL1     0.1889
     2 C         -0.605556   0.028017   0.914374 C.3        1 UNL1     0.1342
     3 C         -0.412475   -1.287732   1.683782 C.3        1 UNL1     0.1174
     4 C         -1.560878   -1.583236   2.651752 C.3        1 UNL1     0.1456
     5 C         -2.943822   -1.375712   2.007732 C.3        1 UNL1     0.2326
     6 O         -3.053855   -0.043701   1.511236 O.3        1 UNL1     -0.3076
     7 O         -3.274669   -2.374689   1.025944 O.3        1 UNL1     -0.4605
     8 C         -3.250191   -1.959544   -0.293367 C.ar        1 UNL1     0.1310
     9 C         -2.657155   -2.656789   -1.351412 C.ar        1 UNL1     0.0226
     10 C         -2.700319   -2.160399   -2.659707 C.ar        1 UNL1     0.1343
     11 C         -3.358872   -0.965273   -2.945756 C.ar        1 UNL1     0.1007
     12 C         -3.919354   -0.239562   -1.891249 C.ar        1 UNL1     0.1389
     13 C         -3.873527   -0.737579   -0.575456 C.ar        1 UNL1     0.0229
     14 C         -3.507368   -0.43695   -4.321611 C.2        1 UNL1     0.1740
     15 C         -4.43161   0.735711   -4.470579 C.3        1 UNL1     0.0520
     16 C         -4.215303   1.672636   -3.290182 C.3        1 UNL1     0.1322
     17 O         -4.496676   0.999752   -2.043135 O.3        1 UNL1     -0.4828
     18 C         -2.873622   2.408423   -3.325326 C.ar        1 UNL1     -0.0067
     19 C         -2.34075   2.93445   -2.130522 C.ar        1 UNL1     -0.0516
     20 C         -1.139648   3.653682   -2.135138 C.ar        1 UNL1     -0.0198
     21 C         -0.46718   3.859581   -3.326448 C.ar        1 UNL1     0.1169
     22 C         -0.949457   3.325374   -4.514249 C.ar        1 UNL1     -0.0198
     23 C         -2.140983   2.590344   -4.507079 C.ar        1 UNL1     -0.0516
     24 O         0.679787   4.59717   -3.297682 O.3        1 UNL1     -0.5068
     25 O         -2.984193   -0.954723   -5.304812 O.2        1 UNL1     -0.2917
     26 O         -2.101554   -2.888278   -3.646245 O.3        1 UNL1     -0.5058
     27 O         -2.444705   -0.01763   -0.756993 O.3        1 UNL1     -0.3648
     28 O         -0.083671   1.086791   1.738595 O.3        1 UNL1     -0.3841
     29 O         -0.15492   -2.367951   0.78438 O.3        1 UNL1     -0.3863
     30 O         -1.448381   -0.71416   3.799681 O.3        1 UNL1     -0.3829
     31 H         -2.162009   1.453768   0.559464 H        1 UNL1     0.0937
     32 H         0.0   -0.0   0.0 H        1 UNL1     0.0671
     33 H         0.498135   -1.190439   2.291271 H        1 UNL1     0.0649
     34 H         -1.48417   -2.612261   3.020024 H        1 UNL1     0.0683
     35 H         -3.642933   -1.46128   2.849041 H        1 UNL1     0.1085
     36 H         -2.178706   -3.618702   -1.20333 H        1 UNL1     0.0691
     37 H         -4.316431   -0.152911   0.227968 H        1 UNL1     0.0691
     38 H         -5.456478   0.349785   -4.485864 H        1 UNL1     0.0385
     39 H         -4.236676   1.226743   -5.430093 H        1 UNL1     0.0385
     40 H         -4.979635   2.458711   -3.356542 H        1 UNL1     0.0789
     41 H         -2.854249   2.794349   -1.183769 H        1 UNL1     0.0623
     42 H         -0.745149   4.064482   -1.209057 H        1 UNL1     0.0654
     43 H         -0.423028   3.467775   -5.450468 H        1 UNL1     0.0654
     44 H         -2.483049   2.178485   -5.451646 H        1 UNL1     0.0623
     45 H         1.35483   4.134998   -3.820588 H        1 UNL1     0.2921
     46 H         -2.21633   -2.436072   -4.496979 H        1 UNL1     0.2922
     47 H         -2.138735   -0.916161   -0.943764 H        1 UNL1     0.2126
     48 H         -0.831212   1.684493   1.932674 H        1 UNL1     0.2101
     49 H         0.022712   -3.179643   1.285775 H        1 UNL1     0.2100
     50 H         -0.916356   0.065285   3.53676 H        1 UNL1     0.2102
@<TRIPOS>BOND
     1     1     2    1
     2     1     6    1
     3     2     3    1
     4     3     4    1
     5     3    29    1
     6     3    33    1
     7     4     5    1
     8     5     6    1
     9     5     7    1
    10     5    35    1
    11     7     8    1
    12     8     9   ar
    13     8    13   ar
    14     9    10   ar
    15     9    36    1
    16    10    11   ar
    17    10    26    1
    18    11    12   ar
    19    11    14    1
    20    12    13   ar
    21    12    17    1
    22    13    37    1
    23    14    15    1
    24    14    25    2
    25    15    16    1
    26    15    38    1
    27    15    39    1
    28    16    17    1
    29    16    18    1
    30    16    40    1
    31    18    19   ar
    32    18    23   ar
    33    19    20   ar
    34    19    41    1
    35    20    21   ar
    36    20    42    1
    37    21    22   ar
    38    21    24    1
    39    22    23   ar
    40    22    43    1
    41    23    44    1
    42    24    45    1
    43    26    46    1
    44    27    47    1
    45    28    48    1
    46    29    49    1
    47    30    50    1
    48     1    31    1
    49     1    27    1
    50     2    32    1
    51     2    28    1
    52     4    34    1
    53     4    30    1
