@<TRIPOS>MOLECULE
*****
 50 53 0 0 0
SMALL
GASTEIGER

@<TRIPOS>ATOM
     1 C         -0.330105   -1.327116   1.703114 C.3        1 UNL1     0.1889
     2 C         -0.461502   -0.975637   0.196749 C.3        1 UNL1     0.1342
     3 C         -1.902564   -0.964858   -0.335877 C.3        1 UNL1     0.1174
     4 C         -2.787649   -2.024328   0.325383 C.3        1 UNL1     0.1456
     5 C         -2.635389   -2.048174   1.857248 C.3        1 UNL1     0.2326
     6 O         -1.270156   -2.264719   2.2067 O.3        1 UNL1     -0.3076
     7 O         -3.211076   -0.901063   2.508434 O.3        1 UNL1     -0.4605
     8 C         -3.719894   -1.115809   3.776708 C.ar        1 UNL1     0.1310
     9 C         -4.534958   -2.189252   4.151796 C.ar        1 UNL1     0.0226
     10 C         -4.987071   -2.328824   5.469375 C.ar        1 UNL1     0.1343
     11 C         -4.61515   -1.410352   6.450153 C.ar        1 UNL1     0.1007
     12 C         -3.835304   -0.311842   6.078807 C.ar        1 UNL1     0.1389
     13 C         -3.383015   -0.170294   4.753352 C.ar        1 UNL1     0.0229
     14 C         -4.994897   -1.555196   7.874571 C.2        1 UNL1     0.1740
     15 C         -4.326404   -0.605363   8.824563 C.3        1 UNL1     0.0520
     16 C         -4.258855   0.766053   8.166831 C.3        1 UNL1     0.1322
     17 O         -3.500883   0.708789   6.938308 O.3        1 UNL1     -0.4828
     18 C         -5.618872   1.456972   8.041493 C.ar        1 UNL1     -0.0067
     19 C         -5.999206   2.018216   6.805141 C.ar        1 UNL1     -0.0516
     20 C         -7.215241   2.698378   6.668758 C.ar        1 UNL1     -0.0198
     21 C         -8.054479   2.830196   7.760606 C.ar        1 UNL1     0.1169
     22 C         -7.722928   2.259501   8.98258 C.ar        1 UNL1     -0.0198
     23 C         -6.515422   1.563375   9.114465 C.ar        1 UNL1     -0.0516
     24 O         -9.212978   3.531866   7.599548 O.3        1 UNL1     -0.5068
     25 O         -5.742567   -2.437249   8.288646 O.2        1 UNL1     -0.2917
     26 O         -5.780136   -3.397653   5.769769 O.3        1 UNL1     -0.5058
     27 O         -0.225461   -0.188056   2.542388 O.3        1 UNL1     -0.3648
     28 O         0.26958   -1.954098   -0.565379 O.3        1 UNL1     -0.3841
     29 O         -2.461132   0.348335   -0.260649 O.3        1 UNL1     -0.3863
     30 O         -2.439166   -3.325279   -0.195938 O.3        1 UNL1     -0.3829
     31 H         0.631062   -1.839028   1.822214 H        1 UNL1     0.0937
     32 H         0.0   0.0   0.0 H        1 UNL1     0.0671
     33 H         -1.865779   -1.205321   -1.407579 H        1 UNL1     0.0649
     34 H         -3.838033   -1.847145   0.069063 H        1 UNL1     0.0683
     35 H         -3.189189   -2.944257   2.164199 H        1 UNL1     0.1085
     36 H         -4.81301   -2.966905   3.4489 H        1 UNL1     0.0691
     37 H         -2.777991   0.694498   4.489583 H        1 UNL1     0.0691
     38 H         -3.323552   -0.99429   9.030836 H        1 UNL1     0.0385
     39 H         -4.886065   -0.585972   9.765935 H        1 UNL1     0.0385
     40 H         -3.664215   1.412468   8.826431 H        1 UNL1     0.0789
     41 H         -5.353832   1.936296   5.93541 H        1 UNL1     0.0623
     42 H         -7.491819   3.137053   5.713205 H        1 UNL1     0.0654
     43 H         -8.379713   2.343777   9.840159 H        1 UNL1     0.0654
     44 H         -6.293267   1.121176   10.080878 H        1 UNL1     0.0623
     45 H         -8.988047   4.439079   7.336701 H        1 UNL1     0.2921
     46 H         -5.374702   -3.909831   6.4872 H        1 UNL1     0.2922
     47 H         0.517019   0.366004   2.263819 H        1 UNL1     0.2126
     48 H         1.202377   -1.887929   -0.283876 H        1 UNL1     0.2101
     49 H         -2.022986   0.930543   -0.901629 H        1 UNL1     0.2100
     50 H         -2.672798   -3.34138   -1.147184 H        1 UNL1     0.2102
@<TRIPOS>BOND
     1     1     2    1
     2     1     6    1
     3     2     3    1
     4     3     4    1
     5     3    29    1
     6     3    33    1
     7     4     5    1
     8     5     6    1
     9     5     7    1
    10     5    35    1
    11     7     8    1
    12     8     9   ar
    13     8    13   ar
    14     9    10   ar
    15     9    36    1
    16    10    11   ar
    17    10    26    1
    18    11    12   ar
    19    11    14    1
    20    12    13   ar
    21    12    17    1
    22    13    37    1
    23    14    15    1
    24    14    25    2
    25    15    16    1
    26    15    38    1
    27    15    39    1
    28    16    17    1
    29    16    18    1
    30    16    40    1
    31    18    19   ar
    32    18    23   ar
    33    19    20   ar
    34    19    41    1
    35    20    21   ar
    36    20    42    1
    37    21    22   ar
    38    21    24    1
    39    22    23   ar
    40    22    43    1
    41    23    44    1
    42    24    45    1
    43    26    46    1
    44    27    47    1
    45    28    48    1
    46    29    49    1
    47    30    50    1
    48     1    31    1
    49     1    27    1
    50     2    32    1
    51     2    28    1
    52     4    34    1
    53     4    30    1
