@<TRIPOS>MOLECULE
*****
 50 53 0 0 0
SMALL
GASTEIGER

@<TRIPOS>ATOM
     1 C         -1.525125   -0.322589   -1.529945 C.3        1 UNL1     0.1889
     2 C         -0.965656   0.430364   -0.293015 C.3        1 UNL1     0.1342
     3 C         -1.899655   0.442557   0.926805 C.3        1 UNL1     0.1174
     4 C         -3.379214   0.513106   0.540741 C.3        1 UNL1     0.1456
     5 C         -3.745103   -0.478796   -0.578464 C.3        1 UNL1     0.2326
     6 O         -2.929525   -0.241878   -1.723703 O.3        1 UNL1     -0.3076
     7 O         -3.735967   -1.853285   -0.151828 O.3        1 UNL1     -0.4605
     8 C         -4.534072   -2.155416   0.936875 C.ar        1 UNL1     0.1310
     9 C         -5.147781   -1.219483   1.776333 C.ar        1 UNL1     0.0226
     10 C         -5.953959   -1.625924   2.84628 C.ar        1 UNL1     0.1343
     11 C         -6.185468   -2.979272   3.08855 C.ar        1 UNL1     0.1007
     12 C         -5.54503   -3.923906   2.282145 C.ar        1 UNL1     0.1389
     13 C         -4.732347   -3.51501   1.208002 C.ar        1 UNL1     0.0229
     14 C         -7.095157   -3.462741   4.152917 C.2        1 UNL1     0.1740
     15 C         -7.400211   -4.931719   4.128527 C.3        1 UNL1     0.0520
     16 C         -6.120691   -5.683933   3.789467 C.3        1 UNL1     0.1322
     17 O         -5.615904   -5.280722   2.497305 O.3        1 UNL1     -0.4828
     18 C         -5.079473   -5.66556   4.911185 C.ar        1 UNL1     -0.0067
     19 C         -5.228198   -4.757181   5.979334 C.ar        1 UNL1     -0.0516
     20 C         -4.269476   -4.681541   6.996729 C.ar        1 UNL1     -0.0198
     21 C         -3.156364   -5.501878   6.953654 C.ar        1 UNL1     0.1169
     22 C         -2.998758   -6.429928   5.932516 C.ar        1 UNL1     -0.0198
     23 C         -3.966603   -6.51863   4.924814 C.ar        1 UNL1     -0.0516
     24 O         -2.224956   -5.373518   7.941786 O.3        1 UNL1     -0.5068
     25 O         -7.641186   -2.720034   4.964535 O.2        1 UNL1     -0.2917
     26 O         -6.522636   -0.663073   3.628014 O.3        1 UNL1     -0.5058
     27 O         -1.057323   -1.657572   -1.638431 O.3        1 UNL1     -0.3648
     28 O         -0.726428   1.800954   -0.663092 O.3        1 UNL1     -0.3841
     29 O         -1.607106   -0.649895   1.800359 O.3        1 UNL1     -0.3863
     30 O         -3.689096   1.851226   0.09454 O.3        1 UNL1     -0.3829
     31 H         -1.115504   0.179304   -2.413343 H        1 UNL1     0.0937
     32 H         0.0   0.0   0.0 H        1 UNL1     0.0671
     33 H         -1.679499   1.348461   1.508689 H        1 UNL1     0.0649
     34 H         -4.004557   0.314959   1.418286 H        1 UNL1     0.0683
     35 H         -4.770129   -0.2006   -0.853795 H        1 UNL1     0.1085
     36 H         -5.052316   -0.15257   1.606912 H        1 UNL1     0.0691
     37 H         -4.244098   -4.270157   0.595744 H        1 UNL1     0.0691
     38 H         -8.169524   -5.097605   3.366841 H        1 UNL1     0.0385
     39 H         -7.810499   -5.229278   5.099557 H        1 UNL1     0.0385
     40 H         -6.390883   -6.740829   3.661068 H        1 UNL1     0.0789
     41 H         -6.088384   -4.096091   6.031207 H        1 UNL1     0.0623
     42 H         -4.389484   -3.968642   7.808754 H        1 UNL1     0.0654
     43 H         -2.138464   -7.087615   5.897131 H        1 UNL1     0.0654
     44 H         -3.816661   -7.262331   4.148108 H        1 UNL1     0.0623
     45 H         -2.66967   -5.051182   8.742439 H        1 UNL1     0.2921
     46 H         -6.359535   -0.866995   4.56248 H        1 UNL1     0.2922
     47 H         -0.289206   -1.790775   -1.065619 H        1 UNL1     0.2126
     48 H         -0.265469   1.781875   -1.523839 H        1 UNL1     0.2101
     49 H         -1.809272   -0.402889   2.716826 H        1 UNL1     0.2100
     50 H         -3.968947   2.372247   0.875523 H        1 UNL1     0.2102
@<TRIPOS>BOND
     1     1     2    1
     2     1     6    1
     3     2     3    1
     4     3     4    1
     5     3    29    1
     6     3    33    1
     7     4     5    1
     8     5     6    1
     9     5     7    1
    10     5    35    1
    11     7     8    1
    12     8     9   ar
    13     8    13   ar
    14     9    10   ar
    15     9    36    1
    16    10    11   ar
    17    10    26    1
    18    11    12   ar
    19    11    14    1
    20    12    13   ar
    21    12    17    1
    22    13    37    1
    23    14    15    1
    24    14    25    2
    25    15    16    1
    26    15    38    1
    27    15    39    1
    28    16    17    1
    29    16    18    1
    30    16    40    1
    31    18    19   ar
    32    18    23   ar
    33    19    20   ar
    34    19    41    1
    35    20    21   ar
    36    20    42    1
    37    21    22   ar
    38    21    24    1
    39    22    23   ar
    40    22    43    1
    41    23    44    1
    42    24    45    1
    43    26    46    1
    44    27    47    1
    45    28    48    1
    46    29    49    1
    47    30    50    1
    48     1    31    1
    49     1    27    1
    50     2    32    1
    51     2    28    1
    52     4    34    1
    53     4    30    1
