@<TRIPOS>MOLECULE
*****
 50 53 0 0 0
SMALL
GASTEIGER

@<TRIPOS>ATOM
     1 C         -0.765335   -0.810576   -1.878306 C.3        1 UNL1     0.1889
     2 C         0.391775   -0.293604   -0.981769 C.3        1 UNL1     0.1342
     3 C         1.187645   0.879135   -1.574844 C.3        1 UNL1     0.1174
     4 C         1.32261   0.795143   -3.097292 C.3        1 UNL1     0.1456
     5 C         -0.01216   0.467132   -3.79095 C.3        1 UNL1     0.2326
     6 O         -0.538543   -0.755026   -3.278975 O.3        1 UNL1     -0.3076
     7 O         -0.958837   1.550529   -3.753886 O.3        1 UNL1     -0.4605
     8 C         -1.213729   2.174435   -4.9619 C.ar        1 UNL1     0.1310
     9 C         -0.449678   3.205904   -5.518318 C.ar        1 UNL1     0.0226
     10 C         -0.780299   3.762958   -6.759399 C.ar        1 UNL1     0.1343
     11 C         -1.870202   3.285305   -7.485898 C.ar        1 UNL1     0.1007
     12 C         -2.664838   2.283671   -6.921924 C.ar        1 UNL1     0.1389
     13 C         -2.333738   1.725538   -5.672808 C.ar        1 UNL1     0.0229
     14 C         -2.215079   3.779657   -8.838979 C.2        1 UNL1     0.1740
     15 C         -3.27585   3.003623   -9.562917 C.3        1 UNL1     0.0520
     16 C         -4.36258   2.62694   -8.565377 C.3        1 UNL1     0.1322
     17 O         -3.821615   1.814784   -7.500093 O.3        1 UNL1     -0.4828
     18 C         -5.203746   3.815094   -8.092669 C.ar        1 UNL1     -0.0067
     19 C         -6.359355   3.581402   -7.319254 C.ar        1 UNL1     -0.0516
     20 C         -7.176889   4.641934   -6.910751 C.ar        1 UNL1     -0.0198
     21 C         -6.854395   5.9371   -7.274578 C.ar        1 UNL1     0.1169
     22 C         -5.704796   6.202231   -8.007357 C.ar        1 UNL1     -0.0198
     23 C         -4.877126   5.14365   -8.400327 C.ar        1 UNL1     -0.0516
     24 O         -7.6947   6.940518   -6.890599 O.3        1 UNL1     -0.5068
     25 O         -1.631337   4.710506   -9.38784 O.2        1 UNL1     -0.2917
     26 O         0.004992   4.767043   -7.245934 O.3        1 UNL1     -0.5058
     27 O         -2.032225   -0.27457   -1.531211 O.3        1 UNL1     -0.3648
     28 O         1.318344   -1.373947   -0.764895 O.3        1 UNL1     -0.3841
     29 O         0.652638   2.129033   -1.134781 O.3        1 UNL1     -0.3863
     30 O         2.283626   -0.229648   -3.431868 O.3        1 UNL1     -0.3829
     31 H         -0.86193   -1.88304   -1.67689 H        1 UNL1     0.0937
     32 H         0.0   0.0   0.0 H        1 UNL1     0.0671
     33 H         2.205494   0.836129   -1.162709 H        1 UNL1     0.0649
     34 H         1.712011   1.740555   -3.490945 H        1 UNL1     0.0683
     35 H         0.270933   0.280187   -4.8344 H        1 UNL1     0.1085
     36 H         0.441898   3.582727   -5.029221 H        1 UNL1     0.0691
     37 H         -2.969176   0.94762   -5.255009 H        1 UNL1     0.0691
     38 H         -2.80244   2.111592   -9.986815 H        1 UNL1     0.0385
     39 H         -3.663783   3.61002   -10.388489 H        1 UNL1     0.0385
     40 H         -5.064954   1.962965   -9.087229 H        1 UNL1     0.0789
     41 H         -6.639123   2.573029   -7.028455 H        1 UNL1     0.0623
     42 H         -8.07179   4.447702   -6.324716 H        1 UNL1     0.0654
     43 H         -5.434762   7.214145   -8.284884 H        1 UNL1     0.0654
     44 H         -3.981316   5.3883   -8.962924 H        1 UNL1     0.0623
     45 H         -8.561283   6.553385   -6.685955 H        1 UNL1     0.2921
     46 H         0.187463   4.608611   -8.185623 H        1 UNL1     0.2922
     47 H         -2.185649   0.555269   -2.004167 H        1 UNL1     0.2126
     48 H         0.811747   -2.202237   -0.8699 H        1 UNL1     0.2101
     49 H         -0.248086   2.241641   -1.478015 H        1 UNL1     0.2100
     50 H         2.898027   0.13962   -4.0996 H        1 UNL1     0.2102
@<TRIPOS>BOND
     1     1     2    1
     2     1     6    1
     3     2     3    1
     4     3     4    1
     5     3    29    1
     6     3    33    1
     7     4     5    1
     8     5     6    1
     9     5     7    1
    10     5    35    1
    11     7     8    1
    12     8     9   ar
    13     8    13   ar
    14     9    10   ar
    15     9    36    1
    16    10    11   ar
    17    10    26    1
    18    11    12   ar
    19    11    14    1
    20    12    13   ar
    21    12    17    1
    22    13    37    1
    23    14    15    1
    24    14    25    2
    25    15    16    1
    26    15    38    1
    27    15    39    1
    28    16    17    1
    29    16    18    1
    30    16    40    1
    31    18    19   ar
    32    18    23   ar
    33    19    20   ar
    34    19    41    1
    35    20    21   ar
    36    20    42    1
    37    21    22   ar
    38    21    24    1
    39    22    23   ar
    40    22    43    1
    41    23    44    1
    42    24    45    1
    43    26    46    1
    44    27    47    1
    45    28    48    1
    46    29    49    1
    47    30    50    1
    48     1    31    1
    49     1    27    1
    50     2    32    1
    51     2    28    1
    52     4    34    1
    53     4    30    1
