@<TRIPOS>MOLECULE
*****
 50 53 0 0 0
SMALL
GASTEIGER

@<TRIPOS>ATOM
     1 C         1.065259   1.548806   -1.112308 C.3        1 UNL1     0.1889
     2 C         0.18708   1.078171   0.078173 C.3        1 UNL1     0.1342
     3 C         -1.156294   1.811359   0.213254 C.3        1 UNL1     0.1174
     4 C         -1.072001   3.284499   -0.194016 C.3        1 UNL1     0.1456
     5 C         -0.324289   3.487172   -1.52451 C.3        1 UNL1     0.2326
     6 O         0.98473   2.928989   -1.436352 O.3        1 UNL1     -0.3076
     7 O         -1.060305   3.025296   -2.671798 O.3        1 UNL1     -0.4605
     8 C         -2.244811   3.687881   -2.939109 C.ar        1 UNL1     0.1310
     9 C         -2.799805   3.874915   -4.20966 C.ar        1 UNL1     0.0226
     10 C         -4.016613   4.546898   -4.376145 C.ar        1 UNL1     0.1343
     11 C         -4.720455   5.027782   -3.272878 C.ar        1 UNL1     0.1007
     12 C         -4.156266   4.883152   -2.00262 C.ar        1 UNL1     0.1389
     13 C         -2.931469   4.209766   -1.835724 C.ar        1 UNL1     0.0229
     14 C         -6.050229   5.670854   -3.383846 C.2        1 UNL1     0.1740
     15 C         -6.759475   5.923763   -2.085942 C.3        1 UNL1     0.0520
     16 C         -5.738278   6.405962   -1.064864 C.3        1 UNL1     0.1322
     17 O         -4.709631   5.412514   -0.859891 O.3        1 UNL1     -0.4828
     18 C         -5.211973   7.816881   -1.338788 C.ar        1 UNL1     -0.0067
     19 C         -5.414626   8.397403   -2.607701 C.ar        1 UNL1     -0.0516
     20 C         -4.905152   9.666681   -2.906585 C.ar        1 UNL1     -0.0198
     21 C         -4.186633   10.360941   -1.949735 C.ar        1 UNL1     0.1169
     22 C         -3.999154   9.829869   -0.680227 C.ar        1 UNL1     -0.0198
     23 C         -4.524343   8.568466   -0.375108 C.ar        1 UNL1     -0.0516
     24 O         -3.673386   11.57817   -2.289343 O.3        1 UNL1     -0.5068
     25 O         -6.594525   5.917544   -4.456866 O.2        1 UNL1     -0.2917
     26 O         -4.503078   4.696968   -5.642011 O.3        1 UNL1     -0.5058
     27 O         0.939327   0.731887   -2.265378 O.3        1 UNL1     -0.3648
     28 O         0.918697   1.296121   1.298804 O.3        1 UNL1     -0.3841
     29 O         -2.190757   1.105253   -0.474812 O.3        1 UNL1     -0.3863
     30 O         -0.387036   4.023571   0.84053 O.3        1 UNL1     -0.3829
     31 H         2.107941   1.418958   -0.802415 H        1 UNL1     0.0937
     32 H         -0.0   0.0   0.0 H        1 UNL1     0.0671
     33 H         -1.444441   1.79076   1.273568 H        1 UNL1     0.0649
     34 H         -2.079147   3.707776   -0.277042 H        1 UNL1     0.0683
     35 H         -0.202862   4.575259   -1.596616 H        1 UNL1     0.1085
     36 H         -2.329493   3.47594   -5.101706 H        1 UNL1     0.0691
     37 H         -2.512927   4.111373   -0.836407 H        1 UNL1     0.0691
     38 H         -7.218711   4.980899   -1.770288 H        1 UNL1     0.0385
     39 H         -7.558159   6.655189   -2.249946 H        1 UNL1     0.0385
     40 H         -6.253927   6.470944   -0.097185 H        1 UNL1     0.0789
     41 H         -5.967377   7.868914   -3.378944 H        1 UNL1     0.0623
     42 H         -5.057895   10.098533   -3.892579 H        1 UNL1     0.0654
     43 H         -3.450946   10.37142   0.081416 H        1 UNL1     0.0654
     44 H         -4.367928   8.188717   0.629964 H        1 UNL1     0.0623
     45 H         -4.153602   11.907554   -3.06627 H        1 UNL1     0.2921
     46 H         -4.108337   4.026632   -6.221875 H        1 UNL1     0.2922
     47 H         1.21312   1.221061   -3.053798 H        1 UNL1     0.2126
     48 H         0.255025   1.43302   2.002033 H        1 UNL1     0.2101
     49 H         -1.802941   0.532573   -1.155569 H        1 UNL1     0.2100
     50 H         -0.668302   3.661532   1.706284 H        1 UNL1     0.2102
@<TRIPOS>BOND
     1     1     2    1
     2     1     6    1
     3     2     3    1
     4     3     4    1
     5     3    29    1
     6     3    33    1
     7     4     5    1
     8     5     6    1
     9     5     7    1
    10     5    35    1
    11     7     8    1
    12     8     9   ar
    13     8    13   ar
    14     9    10   ar
    15     9    36    1
    16    10    11   ar
    17    10    26    1
    18    11    12   ar
    19    11    14    1
    20    12    13   ar
    21    12    17    1
    22    13    37    1
    23    14    15    1
    24    14    25    2
    25    15    16    1
    26    15    38    1
    27    15    39    1
    28    16    17    1
    29    16    18    1
    30    16    40    1
    31    18    19   ar
    32    18    23   ar
    33    19    20   ar
    34    19    41    1
    35    20    21   ar
    36    20    42    1
    37    21    22   ar
    38    21    24    1
    39    22    23   ar
    40    22    43    1
    41    23    44    1
    42    24    45    1
    43    26    46    1
    44    27    47    1
    45    28    48    1
    46    29    49    1
    47    30    50    1
    48     1    31    1
    49     1    27    1
    50     2    32    1
    51     2    28    1
    52     4    34    1
    53     4    30    1
