@<TRIPOS>MOLECULE
*****
 50 53 0 0 0
SMALL
GASTEIGER

@<TRIPOS>ATOM
     1 C         -0.371028   -1.397552   1.637068 C.3        1 UNL1     0.1889
     2 C         -0.487901   -0.971254   0.148931 C.3        1 UNL1     0.1342
     3 C         -1.92634   -0.896654   -0.385666 C.3        1 UNL1     0.1174
     4 C         -2.841486   -1.962471   0.222331 C.3        1 UNL1     0.1456
     5 C         -2.69515   -2.063398   1.751633 C.3        1 UNL1     0.2326
     6 O         -1.337348   -2.332698   2.093273 O.3        1 UNL1     -0.3076
     7 O         -3.242415   -0.933703   2.455629 O.3        1 UNL1     -0.4605
     8 C         -3.771745   -1.197152   3.706202 C.ar        1 UNL1     0.1310
     9 C         -4.620896   -2.264309   4.018321 C.ar        1 UNL1     0.0226
     10 C         -5.092011   -2.456805   5.322506 C.ar        1 UNL1     0.1343
     11 C         -4.705886   -1.599694   6.352121 C.ar        1 UNL1     0.1007
     12 C         -3.891277   -0.506692   6.044646 C.ar        1 UNL1     0.1389
     13 C         -3.41984   -0.311833   4.732698 C.ar        1 UNL1     0.0229
     14 C         -5.106057   -1.804882   7.763474 C.2        1 UNL1     0.1740
     15 C         -4.422261   -0.923398   8.766947 C.3        1 UNL1     0.0520
     16 C         -4.308641   0.476789   8.179985 C.3        1 UNL1     0.1322
     17 O         -3.538362   0.459564   6.95792 O.3        1 UNL1     -0.4828
     18 C         -5.647197   1.211733   8.075831 C.ar        1 UNL1     -0.0067
     19 C         -5.894057   2.322435   8.908667 C.ar        1 UNL1     -0.0516
     20 C         -7.125247   2.987882   8.872418 C.ar        1 UNL1     -0.0198
     21 C         -8.118089   2.548822   8.01491 C.ar        1 UNL1     0.1169
     22 C         -7.893152   1.478718   7.158686 C.ar        1 UNL1     -0.0198
     23 C         -6.655558   0.824583   7.181561 C.ar        1 UNL1     -0.0516
     24 O         -9.317397   3.198191   8.0344 O.3        1 UNL1     -0.5068
     25 O         -5.882929   -2.684851   8.124872 O.2        1 UNL1     -0.2917
     26 O         -5.918177   -3.516239   5.560485 O.3        1 UNL1     -0.5058
     27 O         -0.239062   -0.303011   2.530013 O.3        1 UNL1     -0.3648
     28 O         0.219558   -1.931405   -0.657491 O.3        1 UNL1     -0.3841
     29 O         -2.450115   0.425887   -0.248999 O.3        1 UNL1     -0.3863
     30 O         -2.525871   -3.245911   -0.359785 O.3        1 UNL1     -0.3829
     31 H         0.575801   -1.940015   1.733644 H        1 UNL1     0.0937
     32 H         0.0   0.0   0.0 H        1 UNL1     0.0671
     33 H         -1.892286   -1.086628   -1.467548 H        1 UNL1     0.0649
     34 H         -3.885916   -1.745313   -0.027489 H        1 UNL1     0.0683
     35 H         -3.273582   -2.95801   2.014242 H        1 UNL1     0.1085
     36 H         -4.912471   -2.997459   3.274281 H        1 UNL1     0.0691
     37 H         -2.787777   0.547444   4.519082 H        1 UNL1     0.0691
     38 H         -3.433173   -1.350701   8.963532 H        1 UNL1     0.0385
     39 H         -4.992048   -0.935251   9.702351 H        1 UNL1     0.0385
     40 H         -3.703802   1.072036   8.877387 H        1 UNL1     0.0789
     41 H         -5.13424   2.680889   9.597027 H        1 UNL1     0.0623
     42 H         -7.307665   3.835728   9.52808 H        1 UNL1     0.0654
     43 H         -8.658423   1.136042   6.472505 H        1 UNL1     0.0654
     44 H         -6.510707   -0.00102   6.491458 H        1 UNL1     0.0623
     45 H         -9.343878   3.815943   7.285802 H        1 UNL1     0.2921
     46 H         -5.705241   -3.905063   6.423553 H        1 UNL1     0.2922
     47 H         0.630282   0.109033   2.428423 H        1 UNL1     0.2126
     48 H         0.05389   -1.690287   -1.589236 H        1 UNL1     0.2101
     49 H         -2.998739   0.482683   0.549488 H        1 UNL1     0.2100
     50 H         -1.991307   -3.748233   0.289542 H        1 UNL1     0.2102
@<TRIPOS>BOND
     1     1     2    1
     2     1     6    1
     3     2     3    1
     4     3     4    1
     5     3    29    1
     6     3    33    1
     7     4     5    1
     8     5     6    1
     9     5     7    1
    10     5    35    1
    11     7     8    1
    12     8     9   ar
    13     8    13   ar
    14     9    10   ar
    15     9    36    1
    16    10    11   ar
    17    10    26    1
    18    11    12   ar
    19    11    14    1
    20    12    13   ar
    21    12    17    1
    22    13    37    1
    23    14    15    1
    24    14    25    2
    25    15    16    1
    26    15    38    1
    27    15    39    1
    28    16    17    1
    29    16    18    1
    30    16    40    1
    31    18    19   ar
    32    18    23   ar
    33    19    20   ar
    34    19    41    1
    35    20    21   ar
    36    20    42    1
    37    21    22   ar
    38    21    24    1
    39    22    23   ar
    40    22    43    1
    41    23    44    1
    42    24    45    1
    43    26    46    1
    44    27    47    1
    45    28    48    1
    46    29    49    1
    47    30    50    1
    48     1    31    1
    49     1    27    1
    50     2    32    1
    51     2    28    1
    52     4    34    1
    53     4    30    1
