@<TRIPOS>MOLECULE
*****
 50 53 0 0 0
SMALL
GASTEIGER

@<TRIPOS>ATOM
     1 C         -0.33217   -1.328065   1.701972 C.3        1 UNL1     0.1889
     2 C         -0.462631   -0.975287   0.195829 C.3        1 UNL1     0.1342
     3 C         -1.903484   -0.962538   -0.337318 C.3        1 UNL1     0.1174
     4 C         -2.78996   -2.021556   0.322802 C.3        1 UNL1     0.1456
     5 C         -2.63829   -2.046743   1.854704 C.3        1 UNL1     0.2326
     6 O         -1.273422   -2.265036   2.204491 O.3        1 UNL1     -0.3076
     7 O         -3.212975   -0.89951   2.50656 O.3        1 UNL1     -0.4605
     8 C         -3.723342   -1.114889   3.774103 C.ar        1 UNL1     0.1310
     9 C         -4.540308   -2.187566   4.147239 C.ar        1 UNL1     0.0226
     10 C         -4.993911   -2.327906   5.464224 C.ar        1 UNL1     0.1343
     11 C         -4.621639   -1.411022   6.446353 C.ar        1 UNL1     0.1007
     12 C         -3.839858   -0.31323   6.076952 C.ar        1 UNL1     0.1389
     13 C         -3.386069   -0.170907   4.752093 C.ar        1 UNL1     0.0229
     14 C         -5.002988   -1.556852   7.870242 C.2        1 UNL1     0.1740
     15 C         -4.33407   -0.608998   8.821908 C.3        1 UNL1     0.0520
     16 C         -4.263914   0.763027   8.165718 C.3        1 UNL1     0.1322
     17 O         -3.504821   0.705997   6.937877 O.3        1 UNL1     -0.4828
     18 C         -5.622818   1.456025   8.039792 C.ar        1 UNL1     -0.0067
     19 C         -6.001137   2.019141   6.803673 C.ar        1 UNL1     -0.0516
     20 C         -7.216064   2.701188   6.666832 C.ar        1 UNL1     -0.0198
     21 C         -8.056182   2.833034   7.757999 C.ar        1 UNL1     0.1169
     22 C         -7.726646   2.260554   8.979682 C.ar        1 UNL1     -0.0198
     23 C         -6.520267   1.562559   9.112001 C.ar        1 UNL1     -0.0516
     24 O         -9.213518   3.536535   7.596562 O.3        1 UNL1     -0.5068
     25 O         -5.752324   -2.438278   8.282636 O.2        1 UNL1     -0.2917
     26 O         -5.788799   -3.395921   5.762692 O.3        1 UNL1     -0.5058
     27 O         -0.226601   -0.189765   2.542159 O.3        1 UNL1     -0.3648
     28 O         0.267672   -1.953954   -0.566781 O.3        1 UNL1     -0.3841
     29 O         -2.460657   0.351201   -0.261286 O.3        1 UNL1     -0.3863
     30 O         -2.442695   -3.322483   -0.19939 O.3        1 UNL1     -0.3829
     31 H         0.628397   -1.84111   1.821032 H        1 UNL1     0.0937
     32 H         0.0   0.0   0.0 H        1 UNL1     0.0671
     33 H         -1.866564   -1.202217   -1.40919 H        1 UNL1     0.0649
     34 H         -3.840057   -1.843037   0.066232 H        1 UNL1     0.0683
     35 H         -3.193174   -2.94246   2.160763 H        1 UNL1     0.1085
     36 H         -4.818782   -2.964066   3.443235 H        1 UNL1     0.0691
     37 H         -2.779551   0.693302   4.489847 H        1 UNL1     0.0691
     38 H         -3.331977   -0.999581   9.028745 H        1 UNL1     0.0385
     39 H         -4.894624   -0.589817   9.762753 H        1 UNL1     0.0385
     40 H         -3.668997   1.40788   8.826595 H        1 UNL1     0.0789
     41 H         -5.355029   1.937231   5.934486 H        1 UNL1     0.0623
     42 H         -7.491078   3.141284   5.711481 H        1 UNL1     0.0654
     43 H         -8.38415   2.344848   9.836708 H        1 UNL1     0.0654
     44 H         -6.299692   1.119005   10.078154 H        1 UNL1     0.0623
     45 H         -8.986843   4.445523   7.341462 H        1 UNL1     0.2921
     46 H         -5.38536   -3.908818   6.480735 H        1 UNL1     0.2922
     47 H         0.516475   0.363793   2.264183 H        1 UNL1     0.2126
     48 H         1.200616   -1.888279   -0.285652 H        1 UNL1     0.2101
     49 H         -2.021704   0.933405   -0.901718 H        1 UNL1     0.2100
     50 H         -2.675993   -3.337599   -1.150734 H        1 UNL1     0.2102
@<TRIPOS>BOND
     1     1     2    1
     2     1     6    1
     3     2     3    1
     4     3     4    1
     5     3    29    1
     6     3    33    1
     7     4     5    1
     8     5     6    1
     9     5     7    1
    10     5    35    1
    11     7     8    1
    12     8     9   ar
    13     8    13   ar
    14     9    10   ar
    15     9    36    1
    16    10    11   ar
    17    10    26    1
    18    11    12   ar
    19    11    14    1
    20    12    13   ar
    21    12    17    1
    22    13    37    1
    23    14    15    1
    24    14    25    2
    25    15    16    1
    26    15    38    1
    27    15    39    1
    28    16    17    1
    29    16    18    1
    30    16    40    1
    31    18    19   ar
    32    18    23   ar
    33    19    20   ar
    34    19    41    1
    35    20    21   ar
    36    20    42    1
    37    21    22   ar
    38    21    24    1
    39    22    23   ar
    40    22    43    1
    41    23    44    1
    42    24    45    1
    43    26    46    1
    44    27    47    1
    45    28    48    1
    46    29    49    1
    47    30    50    1
    48     1    31    1
    49     1    27    1
    50     2    32    1
    51     2    28    1
    52     4    34    1
    53     4    30    1
