@<TRIPOS>MOLECULE
*****
 50 53 0 0 0
SMALL
GASTEIGER

@<TRIPOS>ATOM
     1 C         -1.539409   1.055212   1.134704 C.3        1 UNL1     0.1889
     2 C         -0.309927   1.035614   0.187112 C.3        1 UNL1     0.1342
     3 C         0.900113   1.837718   0.690001 C.3        1 UNL1     0.1174
     4 C         0.498135   3.095761   1.463861 C.3        1 UNL1     0.1456
     5 C         -0.607648   2.823287   2.499894 C.3        1 UNL1     0.2326
     6 O         -1.748539   2.260123   1.856403 O.3        1 UNL1     -0.3076
     7 O         -0.157638   2.053439   3.62956 O.3        1 UNL1     -0.4605
     8 C         1.212637   1.923922   3.76776 C.ar        1 UNL1     0.1310
     9 C         1.872892   1.484101   4.920115 C.ar        1 UNL1     0.0226
     10 C         3.267746   1.370127   4.95608 C.ar        1 UNL1     0.1343
     11 C         4.035296   1.670808   3.831669 C.ar        1 UNL1     0.1007
     12 C         3.39048   2.150163   2.688334 C.ar        1 UNL1     0.1389
     13 C         1.988158   2.267193   2.653286 C.ar        1 UNL1     0.0229
     14 C         5.504618   1.488376   3.787341 C.2        1 UNL1     0.1740
     15 C         6.137975   1.64597   2.436204 C.3        1 UNL1     0.0520
     16 C         5.471467   2.815636   1.725143 C.3        1 UNL1     0.1322
     17 O         4.0558   2.577724   1.562808 O.3        1 UNL1     -0.4828
     18 C         5.820852   4.180453   2.323414 C.ar        1 UNL1     -0.0067
     19 C         5.254212   5.34584   1.767529 C.ar        1 UNL1     -0.0516
     20 C         5.589237   6.612782   2.260052 C.ar        1 UNL1     -0.0198
     21 C         6.493222   6.72785   3.300916 C.ar        1 UNL1     0.1169
     22 C         7.042462   5.597009   3.891147 C.ar        1 UNL1     -0.0198
     23 C         6.693502   4.32905   3.410977 C.ar        1 UNL1     -0.0516
     24 O         6.824173   7.979869   3.729075 O.3        1 UNL1     -0.5068
     25 O         6.173696   1.151007   4.760481 O.2        1 UNL1     -0.2917
     26 O         3.850275   0.936314   6.111092 O.3        1 UNL1     -0.5058
     27 O         -1.620504   -0.081914   1.979189 O.3        1 UNL1     -0.3648
     28 O         -0.70084   1.598587   -1.078966 O.3        1 UNL1     -0.3841
     29 O         1.794992   0.999072   1.423483 O.3        1 UNL1     -0.3863
     30 O         0.026176   4.093976   0.532995 O.3        1 UNL1     -0.3829
     31 H         -2.427073   0.981348   0.496992 H        1 UNL1     0.0937
     32 H         0.0   0.0   0.0 H        1 UNL1     0.0671
     33 H         1.468684   2.173156   -0.188594 H        1 UNL1     0.0649
     34 H         1.372627   3.518321   1.97092 H        1 UNL1     0.0683
     35 H         -0.8979   3.823156   2.846153 H        1 UNL1     0.1085
     36 H         1.329267   1.181794   5.808486 H        1 UNL1     0.0691
     37 H         1.5104   2.643933   1.75145 H        1 UNL1     0.0691
     38 H         5.984417   0.710717   1.887342 H        1 UNL1     0.0385
     39 H         7.21577   1.796681   2.560391 H        1 UNL1     0.0385
     40 H         5.865384   2.838266   0.70004 H        1 UNL1     0.0789
     41 H         4.549116   5.282714   0.943815 H        1 UNL1     0.0623
     42 H         5.154634   7.504505   1.815121 H        1 UNL1     0.0654
     43 H         7.739857   5.674999   4.716658 H        1 UNL1     0.0654
     44 H         7.13359   3.46686   3.902705 H        1 UNL1     0.0623
     45 H         6.387062   8.138016   4.581507 H        1 UNL1     0.2921
     46 H         3.587398   1.515857   6.843511 H        1 UNL1     0.2922
     47 H         -0.752634   -0.501619   2.059867 H        1 UNL1     0.2126
     48 H         -0.898956   2.541019   -0.916777 H        1 UNL1     0.2101
     49 H         1.927938   1.358415   2.315106 H        1 UNL1     0.2100
     50 H         -0.472961   3.634907   -0.173992 H        1 UNL1     0.2102
@<TRIPOS>BOND
     1     1     2    1
     2     1     6    1
     3     2     3    1
     4     3     4    1
     5     3    29    1
     6     3    33    1
     7     4     5    1
     8     5     6    1
     9     5     7    1
    10     5    35    1
    11     7     8    1
    12     8     9   ar
    13     8    13   ar
    14     9    10   ar
    15     9    36    1
    16    10    11   ar
    17    10    26    1
    18    11    12   ar
    19    11    14    1
    20    12    13   ar
    21    12    17    1
    22    13    37    1
    23    14    15    1
    24    14    25    2
    25    15    16    1
    26    15    38    1
    27    15    39    1
    28    16    17    1
    29    16    18    1
    30    16    40    1
    31    18    19   ar
    32    18    23   ar
    33    19    20   ar
    34    19    41    1
    35    20    21   ar
    36    20    42    1
    37    21    22   ar
    38    21    24    1
    39    22    23   ar
    40    22    43    1
    41    23    44    1
    42    24    45    1
    43    26    46    1
    44    27    47    1
    45    28    48    1
    46    29    49    1
    47    30    50    1
    48     1    31    1
    49     1    27    1
    50     2    32    1
    51     2    28    1
    52     4    34    1
    53     4    30    1
