@<TRIPOS>MOLECULE
*****
 50 53 0 0 0
SMALL
GASTEIGER

@<TRIPOS>ATOM
     1 C         -0.238227   -1.281023   1.753006 C.3        1 UNL1     0.1889
     2 C         -0.411121   -0.988842   0.238187 C.3        1 UNL1     0.1342
     3 C         -1.859663   -1.064526   -0.268235 C.3        1 UNL1     0.1174
     4 C         -2.682151   -2.140819   0.444664 C.3        1 UNL1     0.1456
     5 C         -2.503627   -2.104059   1.973435 C.3        1 UNL1     0.2326
     6 O         -1.12403   -2.243744   2.305199 O.3        1 UNL1     -0.3076
     7 O         -3.122537   -0.96334   2.595555 O.3        1 UNL1     -0.4605
     8 C         -3.599922   -1.157611   3.879257 C.ar        1 UNL1     0.1310
     9 C         -4.356852   -2.254474   4.30499 C.ar        1 UNL1     0.0226
     10 C         -4.780376   -2.369328   5.634403 C.ar        1 UNL1     0.1343
     11 C         -4.436658   -1.400943   6.576702 C.ar        1 UNL1     0.1007
     12 C         -3.716031   -0.280579   6.154488 C.ar        1 UNL1     0.1389
     13 C         -3.292554   -0.164018   4.817135 C.ar        1 UNL1     0.0229
     14 C         -4.785922   -1.513957   8.011762 C.2        1 UNL1     0.1740
     15 C         -4.147997   -0.50141   8.916941 C.3        1 UNL1     0.0520
     16 C         -4.156387   0.848024   8.21202 C.3        1 UNL1     0.1322
     17 O         -3.41659   0.783824   6.972808 O.3        1 UNL1     -0.4828
     18 C         -5.549559   1.469575   8.087643 C.ar        1 UNL1     -0.0067
     19 C         -5.975082   1.971656   6.840623 C.ar        1 UNL1     -0.0516
     20 C         -7.224109   2.588899   6.703129 C.ar        1 UNL1     -0.0198
     21 C         -8.051884   2.716509   7.804188 C.ar        1 UNL1     0.1169
     22 C         -7.674853   2.202224   9.037961 C.ar        1 UNL1     -0.0198
     23 C         -6.433652   1.568494   9.171612 C.ar        1 UNL1     -0.0516
     24 O         -9.24485   3.357135   7.640382 O.3        1 UNL1     -0.5068
     25 O         -5.484007   -2.41524   8.468765 O.2        1 UNL1     -0.2917
     26 O         -5.516767   -3.463143   5.984947 O.3        1 UNL1     -0.5058
     27 O         -0.17418   -0.109739   2.55099 O.3        1 UNL1     -0.3648
     28 O         0.353107   -1.957748   -0.503353 O.3        1 UNL1     -0.3841
     29 O         -2.478918   0.222721   -0.227608 O.3        1 UNL1     -0.3863
     30 O         -2.28067   -3.441291   -0.038325 O.3        1 UNL1     -0.3829
     31 H         0.748102   -1.742629   1.871981 H        1 UNL1     0.0937
     32 H         0.0   0.0   0.0 H        1 UNL1     0.0671
     33 H         -1.829168   -1.340197   -1.331624 H        1 UNL1     0.0649
     34 H         -3.743884   -2.022353   0.201583 H        1 UNL1     0.0683
     35 H         -3.008903   -3.01399   2.320712 H        1 UNL1     0.1085
     36 H         -4.609002   -3.068236   3.633921 H        1 UNL1     0.0691
     37 H         -2.733675   0.718552   4.513459 H        1 UNL1     0.0691
     38 H         -3.124577   -0.835444   9.118338 H        1 UNL1     0.0385
     39 H         -4.692593   -0.47567   9.866957 H        1 UNL1     0.0385
     40 H         -3.582513   1.54413   8.838619 H        1 UNL1     0.0789
     41 H         -5.339911   1.891958   5.963208 H        1 UNL1     0.0623
     42 H         -7.535869   2.982659   5.738882 H        1 UNL1     0.0654
     43 H         -8.321719   2.283338   9.903348 H        1 UNL1     0.0654
     44 H         -6.175913   1.169003   10.147739 H        1 UNL1     0.0623
     45 H         -9.067272   4.266939   7.351524 H        1 UNL1     0.2921
     46 H         -5.077236   -3.929026   6.713765 H        1 UNL1     0.2922
     47 H         0.534418   0.469981   2.238464 H        1 UNL1     0.2126
     48 H         1.288304   -1.825881   -0.254856 H        1 UNL1     0.2101
     49 H         -2.079876   0.802146   -0.896058 H        1 UNL1     0.2100
     50 H         -2.534055   -3.50365   -0.982581 H        1 UNL1     0.2102
@<TRIPOS>BOND
     1     1     2    1
     2     1     6    1
     3     2     3    1
     4     3     4    1
     5     3    29    1
     6     3    33    1
     7     4     5    1
     8     5     6    1
     9     5     7    1
    10     5    35    1
    11     7     8    1
    12     8     9   ar
    13     8    13   ar
    14     9    10   ar
    15     9    36    1
    16    10    11   ar
    17    10    26    1
    18    11    12   ar
    19    11    14    1
    20    12    13   ar
    21    12    17    1
    22    13    37    1
    23    14    15    1
    24    14    25    2
    25    15    16    1
    26    15    38    1
    27    15    39    1
    28    16    17    1
    29    16    18    1
    30    16    40    1
    31    18    19   ar
    32    18    23   ar
    33    19    20   ar
    34    19    41    1
    35    20    21   ar
    36    20    42    1
    37    21    22   ar
    38    21    24    1
    39    22    23   ar
    40    22    43    1
    41    23    44    1
    42    24    45    1
    43    26    46    1
    44    27    47    1
    45    28    48    1
    46    29    49    1
    47    30    50    1
    48     1    31    1
    49     1    27    1
    50     2    32    1
    51     2    28    1
    52     4    34    1
    53     4    30    1
