@<TRIPOS>MOLECULE
*****
 50 53 0 0 0
SMALL
GASTEIGER

@<TRIPOS>ATOM
     1 C         -0.338871   -1.334176   1.695861 C.3        1 UNL1     0.1889
     2 C         -0.462014   -0.976691   0.190212 C.3        1 UNL1     0.1342
     3 C         -1.900066   -0.964593   -0.350458 C.3        1 UNL1     0.1174
     4 C         -2.788216   -2.027238   0.301535 C.3        1 UNL1     0.1456
     5 C         -2.644551   -2.057183   1.834123 C.3        1 UNL1     0.2326
     6 O         -1.281173   -2.274349   2.190366 O.3        1 UNL1     -0.3076
     7 O         -3.224577   -0.913046   2.486688 O.3        1 UNL1     -0.4605
     8 C         -3.740807   -1.133313   3.751012 C.ar        1 UNL1     0.1310
     9 C         -4.557619   -2.208648   4.116762 C.ar        1 UNL1     0.0226
     10 C         -5.01747   -2.353926   5.431043 C.ar        1 UNL1     0.1343
     11 C         -4.65176   -1.439425   6.417848 C.ar        1 UNL1     0.1007
     12 C         -3.870198   -0.339053   6.055736 C.ar        1 UNL1     0.1389
     13 C         -3.410126   -0.191766   4.73359 C.ar        1 UNL1     0.0229
     14 C         -5.039876   -1.590394   7.839371 C.2        1 UNL1     0.1740
     15 C         -4.37743   -0.644283   8.79728 C.3        1 UNL1     0.0520
     16 C         -4.306573   0.729906   8.145713 C.3        1 UNL1     0.1322
     17 O         -3.541312   0.6781   6.921474 O.3        1 UNL1     -0.4828
     18 C         -5.666119   1.420796   8.015214 C.ar        1 UNL1     -0.0067
     19 C         -6.03819   1.989518   6.779766 C.ar        1 UNL1     -0.0516
     20 C         -7.253675   2.669805   6.639159 C.ar        1 UNL1     -0.0198
     21 C         -8.100576   2.794316   7.725935 C.ar        1 UNL1     0.1169
     22 C         -7.777181   2.216205   8.946607 C.ar        1 UNL1     -0.0198
     23 C         -6.570184   1.519978   9.082558 C.ar        1 UNL1     -0.0516
     24 O         -9.258368   3.496298   7.561189 O.3        1 UNL1     -0.5068
     25 O         -5.789608   -2.474477   8.245308 O.2        1 UNL1     -0.2917
     26 O         -5.811844   -3.424325   5.72225 O.3        1 UNL1     -0.5058
     27 O         -0.239629   -0.198456   2.5403 O.3        1 UNL1     -0.3648
     28 O         0.273927   -1.951642   -0.571738 O.3        1 UNL1     -0.3841
     29 O         -2.459837   0.347962   -0.273071 O.3        1 UNL1     -0.3863
     30 O         -2.436028   -3.325871   -0.223066 O.3        1 UNL1     -0.3829
     31 H         0.621918   -1.846009   1.818294 H        1 UNL1     0.0937
     32 H         0.0   0.0   0.0 H        1 UNL1     0.0671
     33 H         -1.857116   -1.200704   -1.422898 H        1 UNL1     0.0649
     34 H         -3.83725   -1.849628   0.040032 H        1 UNL1     0.0683
     35 H         -3.199529   -2.954819   2.134337 H        1 UNL1     0.1085
     36 H         -4.831169   -2.98346   3.408978 H        1 UNL1     0.0691
     37 H         -2.80392   0.674369   4.477038 H        1 UNL1     0.0691
     38 H         -3.375651   -1.033667   9.007861 H        1 UNL1     0.0385
     39 H         -4.942666   -0.629066   9.735392 H        1 UNL1     0.0385
     40 H         -3.716128   1.373789   8.811528 H        1 UNL1     0.0789
     41 H         -5.386726   1.913403   5.914057 H        1 UNL1     0.0623
     42 H         -7.52387   3.114269   5.684456 H        1 UNL1     0.0654
     43 H         -8.439974   2.294743   9.800099 H        1 UNL1     0.0654
     44 H         -6.354484   1.071889   10.047719 H        1 UNL1     0.0623
     45 H         -9.032158   4.405569   7.306683 H        1 UNL1     0.2921
     46 H         -5.411099   -3.938619   6.440802 H        1 UNL1     0.2922
     47 H         0.503966   0.357244   2.268042 H        1 UNL1     0.2126
     48 H         1.205271   -1.885335   -0.285495 H        1 UNL1     0.2101
     49 H         -2.018624   0.932943   -0.909405 H        1 UNL1     0.2100
     50 H         -2.664302   -3.338263   -1.175668 H        1 UNL1     0.2102
@<TRIPOS>BOND
     1     1     2    1
     2     1     6    1
     3     2     3    1
     4     3     4    1
     5     3    29    1
     6     3    33    1
     7     4     5    1
     8     5     6    1
     9     5     7    1
    10     5    35    1
    11     7     8    1
    12     8     9   ar
    13     8    13   ar
    14     9    10   ar
    15     9    36    1
    16    10    11   ar
    17    10    26    1
    18    11    12   ar
    19    11    14    1
    20    12    13   ar
    21    12    17    1
    22    13    37    1
    23    14    15    1
    24    14    25    2
    25    15    16    1
    26    15    38    1
    27    15    39    1
    28    16    17    1
    29    16    18    1
    30    16    40    1
    31    18    19   ar
    32    18    23   ar
    33    19    20   ar
    34    19    41    1
    35    20    21   ar
    36    20    42    1
    37    21    22   ar
    38    21    24    1
    39    22    23   ar
    40    22    43    1
    41    23    44    1
    42    24    45    1
    43    26    46    1
    44    27    47    1
    45    28    48    1
    46    29    49    1
    47    30    50    1
    48     1    31    1
    49     1    27    1
    50     2    32    1
    51     2    28    1
    52     4    34    1
    53     4    30    1
