@<TRIPOS>MOLECULE
*****
 50 53 0 0 0
SMALL
GASTEIGER

@<TRIPOS>ATOM
     1 C         -0.33147   -1.327737   1.702365 C.3        1 UNL1     0.1889
     2 C         -0.462259   -0.9754   0.196147 C.3        1 UNL1     0.1342
     3 C         -1.903189   -0.963299   -0.336809 C.3        1 UNL1     0.1174
     4 C         -2.789201   -2.022458   0.323708 C.3        1 UNL1     0.1456
     5 C         -2.637315   -2.04719   1.855597 C.3        1 UNL1     0.2326
     6 O         -1.272323   -2.264909   2.205256 O.3        1 UNL1     -0.3076
     7 O         -3.212318   -0.89999   2.50723 O.3        1 UNL1     -0.4605
     8 C         -3.721587   -1.115006   3.775275 C.ar        1 UNL1     0.1310
     9 C         -4.537522   -2.188044   4.14963 C.ar        1 UNL1     0.0226
     10 C         -4.990044   -2.327954   5.467034 C.ar        1 UNL1     0.1343
     11 C         -4.617682   -1.41025   6.448363 C.ar        1 UNL1     0.1007
     12 C         -3.836948   -0.312121   6.077755 C.ar        1 UNL1     0.1389
     13 C         -3.384247   -0.170232   4.752477 C.ar        1 UNL1     0.0229
     14 C         -4.997867   -1.555538   7.872619 C.2        1 UNL1     0.1740
     15 C         -4.328903   -0.606674   8.823247 C.3        1 UNL1     0.0520
     16 C         -4.2602   0.765026   8.166226 C.3        1 UNL1     0.1322
     17 O         -3.501983   0.70783   6.937851 O.3        1 UNL1     -0.4828
     18 C         -5.619683   1.456999   8.040921 C.ar        1 UNL1     -0.0067
     19 C         -5.999319   2.019147   6.804765 C.ar        1 UNL1     -0.0516
     20 C         -7.214826   2.700265   6.668443 C.ar        1 UNL1     -0.0198
     21 C         -8.054222   2.832142   7.760162 C.ar        1 UNL1     0.1169
     22 C         -7.723373   2.260587   8.981924 C.ar        1 UNL1     -0.0198
     23 C         -6.516406   1.563514   9.113738 C.ar        1 UNL1     -0.0516
     24 O         -9.212171   3.534739   7.59919 O.3        1 UNL1     -0.5068
     25 O         -5.746276   -2.437255   8.286073 O.2        1 UNL1     -0.2917
     26 O         -5.783959   -3.396356   5.766701 O.3        1 UNL1     -0.5058
     27 O         -0.226191   -0.189179   2.542239 O.3        1 UNL1     -0.3648
     28 O         0.268287   -1.954008   -0.566306 O.3        1 UNL1     -0.3841
     29 O         -2.460816   0.350262   -0.261046 O.3        1 UNL1     -0.3863
     30 O         -2.441546   -3.323399   -0.19819 O.3        1 UNL1     -0.3829
     31 H         0.629295   -1.84041   1.821429 H        1 UNL1     0.0937
     32 H         0.0   0.0   0.0 H        1 UNL1     0.0671
     33 H         -1.866329   -1.203247   -1.408623 H        1 UNL1     0.0649
     34 H         -3.839396   -1.844379   0.067233 H        1 UNL1     0.0683
     35 H         -3.191841   -2.943024   2.161965 H        1 UNL1     0.1085
     36 H         -4.815977   -2.965139   3.446276 H        1 UNL1     0.0691
     37 H         -2.778531   0.694252   4.489288 H        1 UNL1     0.0691
     38 H         -3.326383   -0.996437   9.029557 H        1 UNL1     0.0385
     39 H         -4.888769   -0.587351   9.764499 H        1 UNL1     0.0385
     40 H         -3.665242   1.410672   8.826291 H        1 UNL1     0.0789
     41 H         -5.353803   1.937196   5.935143 H        1 UNL1     0.0623
     42 H         -7.490861   3.139625   5.713049 H        1 UNL1     0.0654
     43 H         -8.380296   2.344907   9.839392 H        1 UNL1     0.0654
     44 H         -6.294799   1.120663   10.079978 H        1 UNL1     0.0623
     45 H         -8.986483   4.44223   7.33796 H        1 UNL1     0.2921
     46 H         -5.379712   -3.908464   6.484852 H        1 UNL1     0.2922
     47 H         0.516758   0.364481   2.264125 H        1 UNL1     0.2126
     48 H         1.201126   -1.888417   -0.284808 H        1 UNL1     0.2101
     49 H         -2.022156   0.932454   -0.901689 H        1 UNL1     0.2100
     50 H         -2.674967   -3.338847   -1.149499 H        1 UNL1     0.2102
@<TRIPOS>BOND
     1     1     2    1
     2     1     6    1
     3     2     3    1
     4     3     4    1
     5     3    29    1
     6     3    33    1
     7     4     5    1
     8     5     6    1
     9     5     7    1
    10     5    35    1
    11     7     8    1
    12     8     9   ar
    13     8    13   ar
    14     9    10   ar
    15     9    36    1
    16    10    11   ar
    17    10    26    1
    18    11    12   ar
    19    11    14    1
    20    12    13   ar
    21    12    17    1
    22    13    37    1
    23    14    15    1
    24    14    25    2
    25    15    16    1
    26    15    38    1
    27    15    39    1
    28    16    17    1
    29    16    18    1
    30    16    40    1
    31    18    19   ar
    32    18    23   ar
    33    19    20   ar
    34    19    41    1
    35    20    21   ar
    36    20    42    1
    37    21    22   ar
    38    21    24    1
    39    22    23   ar
    40    22    43    1
    41    23    44    1
    42    24    45    1
    43    26    46    1
    44    27    47    1
    45    28    48    1
    46    29    49    1
    47    30    50    1
    48     1    31    1
    49     1    27    1
    50     2    32    1
    51     2    28    1
    52     4    34    1
    53     4    30    1
