@<TRIPOS>MOLECULE
*****
 50 53 0 0 0
SMALL
GASTEIGER

@<TRIPOS>ATOM
     1 C         0.823841   0.720737   1.89014 C.3        1 UNL1     0.1889
     2 C         -0.361904   0.480688   0.917347 C.3        1 UNL1     0.1342
     3 C         -1.15032   1.745106   0.543031 C.3        1 UNL1     0.1174
     4 C         -1.24214   2.749805   1.694233 C.3        1 UNL1     0.1456
     5 C         0.114024   2.981022   2.385407 C.3        1 UNL1     0.2326
     6 O         0.635721   1.741552   2.859131 O.3        1 UNL1     -0.3076
     7 O         1.050584   3.717625   1.578196 O.3        1 UNL1     -0.4605
     8 C         0.537522   4.805272   0.894589 C.ar        1 UNL1     0.1310
     9 C         1.13866   6.065673   0.809013 C.ar        1 UNL1     0.0226
     10 C         0.547123   7.101374   0.075999 C.ar        1 UNL1     0.1343
     11 C         -0.649152   6.894513   -0.609548 C.ar        1 UNL1     0.1007
     12 C         -1.279749   5.652469   -0.497937 C.ar        1 UNL1     0.1389
     13 C         -0.686096   4.612044   0.241335 C.ar        1 UNL1     0.0229
     14 C         -1.27493   7.927581   -1.46706 C.2        1 UNL1     0.1740
     15 C         -2.431907   7.464135   -2.302628 C.3        1 UNL1     0.0520
     16 C         -3.283124   6.519558   -1.465275 C.3        1 UNL1     0.1322
     17 O         -2.512084   5.373577   -1.041844 O.3        1 UNL1     -0.4828
     18 C         -4.052881   7.216773   -0.340957 C.ar        1 UNL1     -0.0067
     19 C         -3.627605   7.054546   0.993598 C.ar        1 UNL1     -0.0516
     20 C         -4.336638   7.639456   2.049588 C.ar        1 UNL1     -0.0198
     21 C         -5.474143   8.38113   1.785334 C.ar        1 UNL1     0.1169
     22 C         -5.898883   8.58663   0.479116 C.ar        1 UNL1     -0.0198
     23 C         -5.179539   8.017185   -0.578396 C.ar        1 UNL1     -0.0516
     24 O         -6.16014   8.903985   2.841947 O.3        1 UNL1     -0.5068
     25 O         -0.845361   9.073816   -1.567557 O.2        1 UNL1     -0.2917
     26 O         1.184001   8.307254   0.033255 O.3        1 UNL1     -0.5058
     27 O         2.076231   0.844676   1.2352 O.3        1 UNL1     -0.3648
     28 O         -1.285465   -0.431304   1.540254 O.3        1 UNL1     -0.3841
     29 O         -0.637819   2.325161   -0.658223 O.3        1 UNL1     -0.3863
     30 O         -2.185215   2.263069   2.673717 O.3        1 UNL1     -0.3829
     31 H         0.923383   -0.188859   2.492473 H        1 UNL1     0.0937
     32 H         0.0   0.0   -0.0 H        1 UNL1     0.0671
     33 H         -2.178878   1.440535   0.30423 H        1 UNL1     0.0649
     34 H         -1.62799   3.706697   1.325616 H        1 UNL1     0.0683
     35 H         -0.138382   3.579628   3.269625 H        1 UNL1     0.1085
     36 H         2.096653   6.273203   1.273018 H        1 UNL1     0.0691
     37 H         -1.1978   3.654742   0.313624 H        1 UNL1     0.0691
     38 H         -2.022632   6.953418   -3.180801 H        1 UNL1     0.0385
     39 H         -2.998005   8.336292   -2.647089 H        1 UNL1     0.0385
     40 H         -4.052552   6.102683   -2.12914 H        1 UNL1     0.0789
     41 H         -2.743092   6.469431   1.227964 H        1 UNL1     0.0623
     42 H         -4.005388   7.497159   3.075276 H        1 UNL1     0.0654
     43 H         -6.779734   9.178189   0.259867 H        1 UNL1     0.0654
     44 H         -5.533903   8.207073   -1.586967 H        1 UNL1     0.0623
     45 H         -7.110221   8.789972   2.677436 H        1 UNL1     0.2921
     46 H         1.86601   8.288646   -0.656621 H        1 UNL1     0.2922
     47 H         2.232322   1.765388   0.982642 H        1 UNL1     0.2126
     48 H         -2.181213   -0.080206   1.372631 H        1 UNL1     0.2101
     49 H         -0.028826   3.048997   -0.441469 H        1 UNL1     0.2100
     50 H         -2.707064   1.545128   2.259052 H        1 UNL1     0.2102
@<TRIPOS>BOND
     1     1     2    1
     2     1     6    1
     3     2     3    1
     4     3     4    1
     5     3    29    1
     6     3    33    1
     7     4     5    1
     8     5     6    1
     9     5     7    1
    10     5    35    1
    11     7     8    1
    12     8     9   ar
    13     8    13   ar
    14     9    10   ar
    15     9    36    1
    16    10    11   ar
    17    10    26    1
    18    11    12   ar
    19    11    14    1
    20    12    13   ar
    21    12    17    1
    22    13    37    1
    23    14    15    1
    24    14    25    2
    25    15    16    1
    26    15    38    1
    27    15    39    1
    28    16    17    1
    29    16    18    1
    30    16    40    1
    31    18    19   ar
    32    18    23   ar
    33    19    20   ar
    34    19    41    1
    35    20    21   ar
    36    20    42    1
    37    21    22   ar
    38    21    24    1
    39    22    23   ar
    40    22    43    1
    41    23    44    1
    42    24    45    1
    43    26    46    1
    44    27    47    1
    45    28    48    1
    46    29    49    1
    47    30    50    1
    48     1    31    1
    49     1    27    1
    50     2    32    1
    51     2    28    1
    52     4    34    1
    53     4    30    1
