@<TRIPOS>MOLECULE
*****
 50 53 0 0 0
SMALL
GASTEIGER

@<TRIPOS>ATOM
     1 C         -0.335236   -1.330369   1.69957 C.3        1 UNL1     0.1889
     2 C         -0.464016   -0.975017   0.193887 C.3        1 UNL1     0.1342
     3 C         -1.904413   -0.959603   -0.34042 C.3        1 UNL1     0.1174
     4 C         -2.792761   -2.018561   0.317276 C.3        1 UNL1     0.1456
     5 C         -2.642382   -2.04639   1.84926 C.3        1 UNL1     0.2326
     6 O         -1.278077   -2.266959   2.199816 O.3        1 UNL1     -0.3076
     7 O         -3.216161   -0.899481   2.502481 O.3        1 UNL1     -0.4605
     8 C         -3.727415   -1.116142   3.769448 C.ar        1 UNL1     0.1310
     9 C         -4.950961   -0.630811   4.243462 C.ar        1 UNL1     0.0226
     10 C         -5.390525   -0.919818   5.540829 C.ar        1 UNL1     0.1343
     11 C         -4.627398   -1.721779   6.388376 C.ar        1 UNL1     0.1007
     12 C         -3.384852   -2.178248   5.940606 C.ar        1 UNL1     0.1389
     13 C         -2.941889   -1.88532   4.636992 C.ar        1 UNL1     0.0229
     14 C         -5.082116   -2.127729   7.73841 C.2        1 UNL1     0.1740
     15 C         -4.243051   -3.167978   8.420614 C.3        1 UNL1     0.0520
     16 C         -2.777349   -2.860351   8.146682 C.3        1 UNL1     0.1322
     17 O         -2.504903   -2.883772   6.728129 O.3        1 UNL1     -0.4828
     18 C         -2.26366   -1.613551   8.870793 C.ar        1 UNL1     -0.0067
     19 C         -1.537606   -0.643606   8.149498 C.ar        1 UNL1     -0.0516
     20 C         -1.013041   0.484887   8.790824 C.ar        1 UNL1     -0.0198
     21 C         -1.200933   0.650885   10.151327 C.ar        1 UNL1     0.1169
     22 C         -1.940035   -0.269983   10.88247 C.ar        1 UNL1     -0.0198
     23 C         -2.480439   -1.389171   10.237927 C.ar        1 UNL1     -0.0516
     24 O         -0.643124   1.742976   10.748474 O.3        1 UNL1     -0.5068
     25 O         -6.11748   -1.716184   8.255263 O.2        1 UNL1     -0.2917
     26 O         -6.59285   -0.415053   5.94234 O.3        1 UNL1     -0.5058
     27 O         -0.228929   -0.193548   2.541665 O.3        1 UNL1     -0.3648
     28 O         0.265683   -1.953379   -0.56969 O.3        1 UNL1     -0.3841
     29 O         -2.459998   0.354712   -0.262741 O.3        1 UNL1     -0.3863
     30 O         -2.446701   -3.319086   -0.206714 O.3        1 UNL1     -0.3829
     31 H         0.624588   -1.844811   1.818595 H        1 UNL1     0.0937
     32 H         0.0   0.0   0.0 H        1 UNL1     0.0671
     33 H         -1.866914   -1.197613   -1.412644 H        1 UNL1     0.0649
     34 H         -3.842422   -1.838312   0.060132 H        1 UNL1     0.0683
     35 H         -3.198642   -2.941899   2.153429 H        1 UNL1     0.1085
     36 H         -5.615679   -0.048711   3.614629 H        1 UNL1     0.0691
     37 H         -1.97017   -2.251648   4.312863 H        1 UNL1     0.0691
     38 H         -4.525475   -4.143067   8.00956 H        1 UNL1     0.0385
     39 H         -4.472828   -3.16871   9.491585 H        1 UNL1     0.0385
     40 H         -2.190021   -3.694967   8.552864 H        1 UNL1     0.0789
     41 H         -1.368571   -0.755483   7.082464 H        1 UNL1     0.0623
     42 H         -0.444792   1.219707   8.225895 H        1 UNL1     0.0654
     43 H         -2.106037   -0.142041   11.945477 H        1 UNL1     0.0654
     44 H         -3.061434   -2.082842   10.838019 H        1 UNL1     0.0623
     45 H         0.319589   1.698894   10.630326 H        1 UNL1     0.2921
     46 H         -7.169151   -1.141159   6.228799 H        1 UNL1     0.2922
     47 H         0.51338   0.360936   2.263486 H        1 UNL1     0.2126
     48 H         1.198478   -1.889327   -0.287692 H        1 UNL1     0.2101
     49 H         -2.019907   0.937345   -0.902 H        1 UNL1     0.2100
     50 H         -2.679236   -3.332386   -1.158272 H        1 UNL1     0.2102
@<TRIPOS>BOND
     1     1     2    1
     2     1     6    1
     3     2     3    1
     4     3     4    1
     5     3    29    1
     6     3    33    1
     7     4     5    1
     8     5     6    1
     9     5     7    1
    10     5    35    1
    11     7     8    1
    12     8     9   ar
    13     8    13   ar
    14     9    10   ar
    15     9    36    1
    16    10    11   ar
    17    10    26    1
    18    11    12   ar
    19    11    14    1
    20    12    13   ar
    21    12    17    1
    22    13    37    1
    23    14    15    1
    24    14    25    2
    25    15    16    1
    26    15    38    1
    27    15    39    1
    28    16    17    1
    29    16    18    1
    30    16    40    1
    31    18    19   ar
    32    18    23   ar
    33    19    20   ar
    34    19    41    1
    35    20    21   ar
    36    20    42    1
    37    21    22   ar
    38    21    24    1
    39    22    23   ar
    40    22    43    1
    41    23    44    1
    42    24    45    1
    43    26    46    1
    44    27    47    1
    45    28    48    1
    46    29    49    1
    47    30    50    1
    48     1    31    1
    49     1    27    1
    50     2    32    1
    51     2    28    1
    52     4    34    1
    53     4    30    1
