@<TRIPOS>MOLECULE
*****
 50 53 0 0 0
SMALL
GASTEIGER

@<TRIPOS>ATOM
     1 C         -0.306854   -1.317948   1.714543 C.3        1 UNL1     0.1889
     2 C         -0.448454   -0.979792   0.206054 C.3        1 UNL1     0.1342
     3 C         -1.891577   -0.991181   -0.320947 C.3        1 UNL1     0.1174
     4 C         -2.760737   -2.056514   0.351916 C.3        1 UNL1     0.1456
     5 C         -2.602292   -2.066613   1.883307 C.3        1 UNL1     0.2326
     6 O         -1.233113   -2.263334   2.229019 O.3        1 UNL1     -0.3076
     7 O         -3.189827   -0.921807   2.527933 O.3        1 UNL1     -0.4605
     8 C         -3.691445   -1.133216   3.79963 C.ar        1 UNL1     0.1310
     9 C         -4.491819   -2.213777   4.18575 C.ar        1 UNL1     0.0226
     10 C         -4.937493   -2.348947   5.50598 C.ar        1 UNL1     0.1343
     11 C         -4.573498   -1.418552   6.478458 C.ar        1 UNL1     0.1007
     12 C         -3.808635   -0.313333   6.096019 C.ar        1 UNL1     0.1389
     13 C         -3.362838   -0.176245   4.767899 C.ar        1 UNL1     0.0229
     14 C         -4.946368   -1.557291   7.905298 C.2        1 UNL1     0.1740
     15 C         -4.286323   -0.592107   8.845675 C.3        1 UNL1     0.0520
     16 C         -4.238093   0.775022   8.177401 C.3        1 UNL1     0.1322
     17 O         -3.483832   0.717829   6.946592 O.3        1 UNL1     -0.4828
     18 C         -5.606997   1.448115   8.051818 C.ar        1 UNL1     -0.0067
     19 C         -5.997484   1.997718   6.813403 C.ar        1 UNL1     -0.0516
     20 C         -7.222311   2.661802   6.67646 C.ar        1 UNL1     -0.0198
     21 C         -8.06037   2.789094   7.769749 C.ar        1 UNL1     0.1169
     22 C         -7.71858   2.22935   8.993966 C.ar        1 UNL1     -0.0198
     23 C         -6.502092   1.549171   9.126521 C.ar        1 UNL1     -0.0516
     24 O         -9.227998   3.47527   7.607864 O.3        1 UNL1     -0.5068
     25 O         -5.681585   -2.445354   8.328718 O.2        1 UNL1     -0.2917
     26 O         -5.716193   -3.425188   5.817293 O.3        1 UNL1     -0.5058
     27 O         -0.213291   -0.171215   2.544627 O.3        1 UNL1     -0.3648
     28 O         0.291917   -1.954878   -0.551418 O.3        1 UNL1     -0.3841
     29 O         -2.466297   0.315453   -0.2536 O.3        1 UNL1     -0.3863
     30 O         -2.397956   -3.356988   -0.160772 O.3        1 UNL1     -0.3829
     31 H         0.661115   -1.816843   1.833775 H        1 UNL1     0.0937
     32 H         0.0   0.0   0.0 H        1 UNL1     0.0671
     33 H         -1.855903   -1.239439   -1.390908 H        1 UNL1     0.0649
     34 H         -3.814242   -1.894489   0.098391 H        1 UNL1     0.0683
     35 H         -3.143611   -2.967165   2.199313 H        1 UNL1     0.1085
     36 H         -4.762711   -3.000106   3.489743 H        1 UNL1     0.0691
     37 H         -2.769508   0.693935   4.49543 H        1 UNL1     0.0691
     38 H         -3.278006   -0.967041   9.051218 H        1 UNL1     0.0385
     39 H         -4.842838   -0.572506   9.788906 H        1 UNL1     0.0385
     40 H         -3.649167   1.433708   8.829948 H        1 UNL1     0.0789
     41 H         -5.353338   1.91911   5.942457 H        1 UNL1     0.0623
     42 H         -7.506799   3.091697   5.719241 H        1 UNL1     0.0654
     43 H         -8.374197   2.310102   9.852776 H        1 UNL1     0.0654
     44 H         -6.271951   1.11513   10.09476 H        1 UNL1     0.0623
     45 H         -9.014893   4.386396   7.348724 H        1 UNL1     0.2921
     46 H         -5.303255   -3.92537   6.538897 H        1 UNL1     0.2922
     47 H         0.518406   0.39208   2.256222 H        1 UNL1     0.2126
     48 H         1.227981   -1.860594   -0.289451 H        1 UNL1     0.2101
     49 H         -2.043869   0.895843   -0.906667 H        1 UNL1     0.2100
     50 H         -2.640215   -3.385348   -1.109571 H        1 UNL1     0.2102
@<TRIPOS>BOND
     1     1     2    1
     2     1     6    1
     3     2     3    1
     4     3     4    1
     5     3    29    1
     6     3    33    1
     7     4     5    1
     8     5     6    1
     9     5     7    1
    10     5    35    1
    11     7     8    1
    12     8     9   ar
    13     8    13   ar
    14     9    10   ar
    15     9    36    1
    16    10    11   ar
    17    10    26    1
    18    11    12   ar
    19    11    14    1
    20    12    13   ar
    21    12    17    1
    22    13    37    1
    23    14    15    1
    24    14    25    2
    25    15    16    1
    26    15    38    1
    27    15    39    1
    28    16    17    1
    29    16    18    1
    30    16    40    1
    31    18    19   ar
    32    18    23   ar
    33    19    20   ar
    34    19    41    1
    35    20    21   ar
    36    20    42    1
    37    21    22   ar
    38    21    24    1
    39    22    23   ar
    40    22    43    1
    41    23    44    1
    42    24    45    1
    43    26    46    1
    44    27    47    1
    45    28    48    1
    46    29    49    1
    47    30    50    1
    48     1    31    1
    49     1    27    1
    50     2    32    1
    51     2    28    1
    52     4    34    1
    53     4    30    1
