@<TRIPOS>MOLECULE
*****
 50 53 0 0 0
SMALL
GASTEIGER

@<TRIPOS>ATOM
     1 C         -0.277127   -1.356522   1.689335 C.3        1 UNL1     0.1889
     2 C         -0.438957   -0.98727   0.1902 C.3        1 UNL1     0.1342
     3 C         -1.888087   -0.998098   -0.320064 C.3        1 UNL1     0.1174
     4 C         -2.741581   -2.083982   0.339875 C.3        1 UNL1     0.1456
     5 C         -2.564988   -2.125626   1.868746 C.3        1 UNL1     0.2326
     6 O         -1.190446   -2.319529   2.194174 O.3        1 UNL1     -0.3076
     7 O         -3.153053   -0.999244   2.544589 O.3        1 UNL1     -0.4605
     8 C         -3.648289   -1.244151   3.812773 C.ar        1 UNL1     0.1310
     9 C         -4.437894   -2.340242   4.176654 C.ar        1 UNL1     0.0226
     10 C         -4.877675   -2.509558   5.494921 C.ar        1 UNL1     0.1343
     11 C         -4.518291   -1.598574   6.487288 C.ar        1 UNL1     0.1007
     12 C         -3.764397   -0.478228   6.127772 C.ar        1 UNL1     0.1389
     13 C         -3.324537   -0.306813   4.801661 C.ar        1 UNL1     0.0229
     14 C         -4.884861   -1.773267   7.91181 C.2        1 UNL1     0.1740
     15 C         -4.229856   -0.824181   8.871889 C.3        1 UNL1     0.0520
     16 C         -4.19585   0.55829   8.23504 C.3        1 UNL1     0.1322
     17 O         -3.44551   0.535947   7.000714 O.3        1 UNL1     -0.4828
     18 C         -5.570972   1.222096   8.129557 C.ar        1 UNL1     -0.0067
     19 C         -5.731708   2.355043   7.305658 C.ar        1 UNL1     -0.0516
     20 C         -6.963966   3.014386   7.223385 C.ar        1 UNL1     -0.0198
     21 C         -8.038762   2.556053   7.964042 C.ar        1 UNL1     0.1169
     22 C         -7.920594   1.423078   8.75855 C.ar        1 UNL1     -0.0198
     23 C         -6.69344   0.75263   8.826737 C.ar        1 UNL1     -0.0516
     24 O         -9.212741   3.246227   7.887676 O.3        1 UNL1     -0.5068
     25 O         -5.610846   -2.677205   8.317185 O.2        1 UNL1     -0.2917
     26 O         -5.64591   -3.599424   5.784042 O.3        1 UNL1     -0.5058
     27 O         -0.181983   -0.227127   2.542681 O.3        1 UNL1     -0.3648
     28 O         0.299381   -1.940431   -0.596596 O.3        1 UNL1     -0.3841
     29 O         -2.471318   0.302501   -0.218006 O.3        1 UNL1     -0.3863
     30 O         -2.375574   -3.370477   -0.204788 O.3        1 UNL1     -0.3829
     31 H         0.695733   -1.850659   1.786544 H        1 UNL1     0.0937
     32 H         0.0   0.0   0.0 H        1 UNL1     0.0671
     33 H         -1.863277   -1.223165   -1.395448 H        1 UNL1     0.0649
     34 H         -3.799142   -1.924393   0.102183 H        1 UNL1     0.0683
     35 H         -3.09607   -3.036714   2.171648 H        1 UNL1     0.1085
     36 H         -4.704442   -3.112732   3.463681 H        1 UNL1     0.0691
     37 H         -2.739741   0.574543   4.547262 H        1 UNL1     0.0691
     38 H         -3.217604   -1.194904   9.065373 H        1 UNL1     0.0385
     39 H         -4.783157   -0.831092   9.817187 H        1 UNL1     0.0385
     40 H         -3.610331   1.206954   8.900565 H        1 UNL1     0.0789
     41 H         -4.900931   2.739919   6.721422 H        1 UNL1     0.0623
     42 H         -7.072076   3.894037   6.593672 H        1 UNL1     0.0654
     43 H         -8.759938   1.046718   9.331058 H        1 UNL1     0.0654
     44 H         -6.639844   -0.13531   9.44926 H        1 UNL1     0.0623
     45 H         -9.063268   4.144003   8.225868 H        1 UNL1     0.2921
     46 H         -5.237491   -4.100352   6.507698 H        1 UNL1     0.2922
     47 H         0.531547   0.355931   2.248098 H        1 UNL1     0.2126
     48 H         1.2441   -1.798317   -0.394003 H        1 UNL1     0.2101
     49 H         -2.061046   0.89974   -0.863588 H        1 UNL1     0.2100
     50 H         -2.649311   -3.38866   -1.145241 H        1 UNL1     0.2102
@<TRIPOS>BOND
     1     1     2    1
     2     1     6    1
     3     2     3    1
     4     3     4    1
     5     3    29    1
     6     3    33    1
     7     4     5    1
     8     5     6    1
     9     5     7    1
    10     5    35    1
    11     7     8    1
    12     8     9   ar
    13     8    13   ar
    14     9    10   ar
    15     9    36    1
    16    10    11   ar
    17    10    26    1
    18    11    12   ar
    19    11    14    1
    20    12    13   ar
    21    12    17    1
    22    13    37    1
    23    14    15    1
    24    14    25    2
    25    15    16    1
    26    15    38    1
    27    15    39    1
    28    16    17    1
    29    16    18    1
    30    16    40    1
    31    18    19   ar
    32    18    23   ar
    33    19    20   ar
    34    19    41    1
    35    20    21   ar
    36    20    42    1
    37    21    22   ar
    38    21    24    1
    39    22    23   ar
    40    22    43    1
    41    23    44    1
    42    24    45    1
    43    26    46    1
    44    27    47    1
    45    28    48    1
    46    29    49    1
    47    30    50    1
    48     1    31    1
    49     1    27    1
    50     2    32    1
    51     2    28    1
    52     4    34    1
    53     4    30    1
