@<TRIPOS>MOLECULE
*****
 50 53 0 0 0
SMALL
GASTEIGER

@<TRIPOS>ATOM
     1 C         -0.333624   -1.33143   1.699057 C.3        1 UNL1     0.1889
     2 C         -0.45931   -0.977461   0.192787 C.3        1 UNL1     0.1342
     3 C         -1.897973   -0.970185   -0.346343 C.3        1 UNL1     0.1174
     4 C         -2.782698   -2.033706   0.30887 C.3        1 UNL1     0.1456
     5 C         -2.637298   -2.060027   1.841361 C.3        1 UNL1     0.2326
     6 O         -1.272985   -2.272953   2.196581 O.3        1 UNL1     -0.3076
     7 O         -3.21954   -0.91599   2.492126 O.3        1 UNL1     -0.4605
     8 C         -3.733413   -1.13478   3.757667 C.ar        1 UNL1     0.1310
     9 C         -4.717706   -2.074878   4.081216 C.ar        1 UNL1     0.0226
     10 C         -5.161541   -2.233536   5.39945 C.ar        1 UNL1     0.1343
     11 C         -4.614228   -1.471702   6.430905 C.ar        1 UNL1     0.1007
     12 C         -3.660095   -0.501133   6.114033 C.ar        1 UNL1     0.1389
     13 C         -3.215891   -0.339965   4.788084 C.ar        1 UNL1     0.0229
     14 C         -4.985693   -1.656327   7.852904 C.2        1 UNL1     0.1740
     15 C         -4.141589   -0.913137   8.846234 C.3        1 UNL1     0.0520
     16 C         -3.845837   0.471566   8.286694 C.3        1 UNL1     0.1322
     17 O         -3.134018   0.376794   7.033138 O.3        1 UNL1     -0.4828
     18 C         -5.064695   1.396849   8.255695 C.ar        1 UNL1     -0.0067
     19 C         -5.364037   2.108596   7.075854 C.ar        1 UNL1     -0.0516
     20 C         -6.443317   2.999024   7.028373 C.ar        1 UNL1     -0.0198
     21 C         -7.224617   3.191606   8.153678 C.ar        1 UNL1     0.1169
     22 C         -6.975231   2.480197   9.320101 C.ar        1 UNL1     -0.0198
     23 C         -5.90725   1.57593   9.362232 C.ar        1 UNL1     -0.0516
     24 O         -8.24396   4.094986   8.081263 O.3        1 UNL1     -0.5068
     25 O         -5.869112   -2.423285   8.226844 O.2        1 UNL1     -0.2917
     26 O         -6.124829   -3.167243   5.64815 O.3        1 UNL1     -0.5058
     27 O         -0.236371   -0.193667   2.540975 O.3        1 UNL1     -0.3648
     28 O         0.278295   -1.952147   -0.567891 O.3        1 UNL1     -0.3841
     29 O         -2.461013   0.341098   -0.271133 O.3        1 UNL1     -0.3863
     30 O         -2.42776   -3.332547   -0.213356 O.3        1 UNL1     -0.3829
     31 H         0.628602   -1.840546   1.821531 H        1 UNL1     0.0937
     32 H         0.0   0.0   0.0 H        1 UNL1     0.0671
     33 H         -1.85558   -1.208464   -1.418325 H        1 UNL1     0.0649
     34 H         -3.832464   -1.859331   0.048131 H        1 UNL1     0.0683
     35 H         -3.189654   -2.958437   2.144083 H        1 UNL1     0.1085
     36 H         -5.142355   -2.736076   3.333814 H        1 UNL1     0.0691
     37 H         -2.472962   0.423481   4.567402 H        1 UNL1     0.0691
     38 H         -3.219319   -1.48578   8.991235 H        1 UNL1     0.0385
     39 H         -4.670543   -0.868248   9.804342 H        1 UNL1     0.0385
     40 H         -3.133649   0.951959   8.971187 H        1 UNL1     0.0789
     41 H         -4.760373   1.981889   6.181882 H        1 UNL1     0.0623
     42 H         -6.65671   3.550896   6.11628 H        1 UNL1     0.0654
     43 H         -7.589947   2.612135   10.202499 H        1 UNL1     0.0654
     44 H         -5.747825   1.029272   10.286674 H        1 UNL1     0.0623
     45 H         -7.867573   4.966368   7.876951 H        1 UNL1     0.2921
     46 H         -5.802256   -3.795592   6.313384 H        1 UNL1     0.2922
     47 H         0.505611   0.363261   2.266836 H        1 UNL1     0.2126
     48 H         1.209596   -1.883588   -0.282038 H        1 UNL1     0.2101
     49 H         -2.021808   0.925916   -0.909005 H        1 UNL1     0.2100
     50 H         -2.657032   -3.347547   -1.165681 H        1 UNL1     0.2102
@<TRIPOS>BOND
     1     1     2    1
     2     1     6    1
     3     2     3    1
     4     3     4    1
     5     3    29    1
     6     3    33    1
     7     4     5    1
     8     5     6    1
     9     5     7    1
    10     5    35    1
    11     7     8    1
    12     8     9   ar
    13     8    13   ar
    14     9    10   ar
    15     9    36    1
    16    10    11   ar
    17    10    26    1
    18    11    12   ar
    19    11    14    1
    20    12    13   ar
    21    12    17    1
    22    13    37    1
    23    14    15    1
    24    14    25    2
    25    15    16    1
    26    15    38    1
    27    15    39    1
    28    16    17    1
    29    16    18    1
    30    16    40    1
    31    18    19   ar
    32    18    23   ar
    33    19    20   ar
    34    19    41    1
    35    20    21   ar
    36    20    42    1
    37    21    22   ar
    38    21    24    1
    39    22    23   ar
    40    22    43    1
    41    23    44    1
    42    24    45    1
    43    26    46    1
    44    27    47    1
    45    28    48    1
    46    29    49    1
    47    30    50    1
    48     1    31    1
    49     1    27    1
    50     2    32    1
    51     2    28    1
    52     4    34    1
    53     4    30    1
