@<TRIPOS>MOLECULE
*****
 50 53 0 0 0
SMALL
GASTEIGER

@<TRIPOS>ATOM
     1 C         -0.352075   -1.340636   1.688059 C.3        1 UNL1     0.1889
     2 C         -0.470468   -0.973787   0.184282 C.3        1 UNL1     0.1342
     3 C         -1.907747   -0.946534   -0.357891 C.3        1 UNL1     0.1174
     4 C         -2.805591   -2.005225   0.287219 C.3        1 UNL1     0.1456
     5 C         -2.663939   -2.044874   1.819774 C.3        1 UNL1     0.2326
     6 O         -1.302855   -2.275532   2.176303 O.3        1 UNL1     -0.3076
     7 O         -3.235023   -0.899505   2.47804 O.3        1 UNL1     -0.4605
     8 C         -3.761328   -1.124001   3.737458 C.ar        1 UNL1     0.1310
     9 C         -4.592355   -2.19294   4.089687 C.ar        1 UNL1     0.0226
     10 C         -5.061746   -2.343488   5.399996 C.ar        1 UNL1     0.1343
     11 C         -4.691768   -1.441055   6.396275 C.ar        1 UNL1     0.1007
     12 C         -3.89573   -0.346713   6.047675 C.ar        1 UNL1     0.1389
     13 C         -3.426047   -0.194097   4.729518 C.ar        1 UNL1     0.0229
     14 C         -5.090143   -1.598956   7.814203 C.2        1 UNL1     0.1740
     15 C         -4.422924   -0.668031   8.783608 C.3        1 UNL1     0.0520
     16 C         -4.33271   0.710418   8.143533 C.3        1 UNL1     0.1322
     17 O         -3.560689   0.659741   6.923498 O.3        1 UNL1     -0.4828
     18 C         -5.683602   1.417605   8.010491 C.ar        1 UNL1     -0.0067
     19 C         -6.035439   2.013259   6.781825 C.ar        1 UNL1     -0.0516
     20 C         -7.242276   2.708552   6.640134 C.ar        1 UNL1     -0.0198
     21 C         -8.100538   2.821323   7.719252 C.ar        1 UNL1     0.1169
     22 C         -7.797293   2.217062   8.932409 C.ar        1 UNL1     -0.0198
     23 C         -6.599049   1.506007   9.069045 C.ar        1 UNL1     -0.0516
     24 O         -9.249187   3.538167   7.554503 O.3        1 UNL1     -0.5068
     25 O         -5.852191   -2.477737   8.208553 O.2        1 UNL1     -0.2917
     26 O         -5.86983   -3.40715   5.677859 O.3        1 UNL1     -0.5058
     27 O         -0.244206   -0.210491   2.538895 O.3        1 UNL1     -0.3648
     28 O         0.258079   -1.950692   -0.582257 O.3        1 UNL1     -0.3841
     29 O         -2.456495   0.370259   -0.273837 O.3        1 UNL1     -0.3863
     30 O         -2.46379   -3.303864   -0.244193 O.3        1 UNL1     -0.3829
     31 H         0.604214   -1.861247   1.808705 H        1 UNL1     0.0937
     32 H         0.0   0.0   0.0 H        1 UNL1     0.0671
     33 H         -1.865566   -1.177055   -1.431577 H        1 UNL1     0.0649
     34 H         -3.852787   -1.817304   0.025553 H        1 UNL1     0.0683
     35 H         -3.226827   -2.939433   2.114393 H        1 UNL1     0.1085
     36 H         -4.870299   -2.958957   3.374086 H        1 UNL1     0.0691
     37 H         -2.808619   0.667166   4.483546 H        1 UNL1     0.0691
     38 H         -3.42687   -1.070347   8.997019 H        1 UNL1     0.0385
     39 H         -4.993616   -0.653915   9.718429 H        1 UNL1     0.0385
     40 H         -3.739112   1.342281   8.818003 H        1 UNL1     0.0789
     41 H         -5.37469   1.946729   5.922386 H        1 UNL1     0.0623
     42 H         -7.496787   3.173648   5.690965 H        1 UNL1     0.0654
     43 H         -8.469201   2.286361   9.779549 H        1 UNL1     0.0654
     44 H         -6.399185   1.037652   10.027973 H        1 UNL1     0.0623
     45 H         -9.010696   4.456894   7.350105 H        1 UNL1     0.2921
     46 H         -5.479929   -3.930861   6.395575 H        1 UNL1     0.2922
     47 H         0.498485   0.345422   2.264616 H        1 UNL1     0.2126
     48 H         1.196371   -1.8646   -0.325492 H        1 UNL1     0.2101
     49 H         -2.015331   0.952999   -0.912259 H        1 UNL1     0.2100
     50 H         -2.69631   -3.31095   -1.195822 H        1 UNL1     0.2102
@<TRIPOS>BOND
     1     1     2    1
     2     1     6    1
     3     2     3    1
     4     3     4    1
     5     3    29    1
     6     3    33    1
     7     4     5    1
     8     5     6    1
     9     5     7    1
    10     5    35    1
    11     7     8    1
    12     8     9   ar
    13     8    13   ar
    14     9    10   ar
    15     9    36    1
    16    10    11   ar
    17    10    26    1
    18    11    12   ar
    19    11    14    1
    20    12    13   ar
    21    12    17    1
    22    13    37    1
    23    14    15    1
    24    14    25    2
    25    15    16    1
    26    15    38    1
    27    15    39    1
    28    16    17    1
    29    16    18    1
    30    16    40    1
    31    18    19   ar
    32    18    23   ar
    33    19    20   ar
    34    19    41    1
    35    20    21   ar
    36    20    42    1
    37    21    22   ar
    38    21    24    1
    39    22    23   ar
    40    22    43    1
    41    23    44    1
    42    24    45    1
    43    26    46    1
    44    27    47    1
    45    28    48    1
    46    29    49    1
    47    30    50    1
    48     1    31    1
    49     1    27    1
    50     2    32    1
    51     2    28    1
    52     4    34    1
    53     4    30    1
