@<TRIPOS>MOLECULE
*****
 50 53 0 0 0
SMALL
GASTEIGER

@<TRIPOS>ATOM
     1 C         -1.504672   -0.119214   -1.578783 C.3        1 UNL1     0.1889
     2 C         -0.708003   0.669078   -0.504606 C.3        1 UNL1     0.1342
     3 C         -1.576082   1.36915   0.552183 C.3        1 UNL1     0.1174
     4 C         -2.89773   1.891467   -0.016629 C.3        1 UNL1     0.1456
     5 C         -3.614487   0.850307   -0.89561 C.3        1 UNL1     0.2326
     6 O         -2.756129   0.43578   -1.95592 O.3        1 UNL1     -0.3076
     7 O         -4.162975   -0.250621   -0.148322 O.3        1 UNL1     -0.4605
     8 C         -5.38248   -0.733709   -0.587594 C.ar        1 UNL1     0.1310
     9 C         -6.574015   -0.002137   -0.636038 C.ar        1 UNL1     0.0226
     10 C         -7.757336   -0.577095   -1.114658 C.ar        1 UNL1     0.1343
     11 C         -7.772395   -1.891571   -1.579165 C.ar        1 UNL1     0.1007
     12 C         -6.598317   -2.645006   -1.497555 C.ar        1 UNL1     0.1389
     13 C         -5.40925   -2.067482   -1.013801 C.ar        1 UNL1     0.0229
     14 C         -8.974068   -2.522151   -2.172886 C.2        1 UNL1     0.1740
     15 C         -8.753407   -3.857117   -2.82152 C.3        1 UNL1     0.0520
     16 C         -7.793321   -4.660816   -1.955345 C.3        1 UNL1     0.1322
     17 O         -6.52631   -3.978945   -1.825711 O.3        1 UNL1     -0.4828
     18 C         -8.40156   -5.12655   -0.630255 C.ar        1 UNL1     -0.0067
     19 C         -9.762942   -4.871873   -0.365698 C.ar        1 UNL1     -0.0516
     20 C         -10.33889   -5.242113   0.855437 C.ar        1 UNL1     -0.0198
     21 C         -9.564033   -5.859651   1.820875 C.ar        1 UNL1     0.1169
     22 C         -8.228848   -6.153908   1.576882 C.ar        1 UNL1     -0.0198
     23 C         -7.657279   -5.80038   0.34872 C.ar        1 UNL1     -0.0516
     24 O         -10.150019   -6.171541   3.012406 O.3        1 UNL1     -0.5068
     25 O         -10.072872   -1.975164   -2.216708 O.2        1 UNL1     -0.2917
     26 O         -8.885512   0.189981   -1.134648 O.3        1 UNL1     -0.5058
     27 O         -1.609542   -1.506341   -1.300093 O.3        1 UNL1     -0.3648
     28 O         0.06564   1.687096   -1.166286 O.3        1 UNL1     -0.3841
     29 O         -1.75827   0.530812   1.695043 O.3        1 UNL1     -0.3863
     30 O         -2.639049   3.069845   -0.810481 O.3        1 UNL1     -0.3829
     31 H         -0.915745   -0.073299   -2.501352 H        1 UNL1     0.0937
     32 H         0.0   0.0   0.0 H        1 UNL1     0.0671
     33 H         -1.019652   2.243592   0.917503 H        1 UNL1     0.0649
     34 H         -3.562475   2.194591   0.799845 H        1 UNL1     0.0683
     35 H         -4.438108   1.412518   -1.353264 H        1 UNL1     0.1085
     36 H         -6.615091   1.040897   -0.341907 H        1 UNL1     0.0691
     37 H         -4.508892   -2.675665   -0.95939 H        1 UNL1     0.0691
     38 H         -8.331379   -3.676461   -3.815895 H        1 UNL1     0.0385
     39 H         -9.718658   -4.359743   -2.945766 H        1 UNL1     0.0385
     40 H         -7.554703   -5.581378   -2.505024 H        1 UNL1     0.0789
     41 H         -10.390144   -4.380195   -1.103614 H        1 UNL1     0.0623
     42 H         -11.386819   -5.029565   1.052108 H        1 UNL1     0.0654
     43 H         -7.616763   -6.65072   2.320145 H        1 UNL1     0.0654
     44 H         -6.61412   -6.055038   0.188051 H        1 UNL1     0.0623
     45 H         -11.065772   -5.84922   2.99749 H        1 UNL1     0.2921
     46 H         -9.603884   -0.302274   -1.56248 H        1 UNL1     0.2922
     47 H         -0.84146   -1.97756   -1.652035 H        1 UNL1     0.2126
     48 H         0.972472   1.62568   -0.809052 H        1 UNL1     0.2101
     49 H         -1.540108   -0.387379   1.468934 H        1 UNL1     0.2100
     50 H         -3.496367   3.51144   -0.982855 H        1 UNL1     0.2102
@<TRIPOS>BOND
     1     1     2    1
     2     1     6    1
     3     2     3    1
     4     3     4    1
     5     3    29    1
     6     3    33    1
     7     4     5    1
     8     5     6    1
     9     5     7    1
    10     5    35    1
    11     7     8    1
    12     8     9   ar
    13     8    13   ar
    14     9    10   ar
    15     9    36    1
    16    10    11   ar
    17    10    26    1
    18    11    12   ar
    19    11    14    1
    20    12    13   ar
    21    12    17    1
    22    13    37    1
    23    14    15    1
    24    14    25    2
    25    15    16    1
    26    15    38    1
    27    15    39    1
    28    16    17    1
    29    16    18    1
    30    16    40    1
    31    18    19   ar
    32    18    23   ar
    33    19    20   ar
    34    19    41    1
    35    20    21   ar
    36    20    42    1
    37    21    22   ar
    38    21    24    1
    39    22    23   ar
    40    22    43    1
    41    23    44    1
    42    24    45    1
    43    26    46    1
    44    27    47    1
    45    28    48    1
    46    29    49    1
    47    30    50    1
    48     1    31    1
    49     1    27    1
    50     2    32    1
    51     2    28    1
    52     4    34    1
    53     4    30    1
