@<TRIPOS>MOLECULE
*****
 50 53 0 0 0
SMALL
GASTEIGER

@<TRIPOS>ATOM
     1 C         -0.081248   -1.032572   1.923018 C.3        1 UNL1     0.1889
     2 C         -0.558205   -0.824613   0.460416 C.3        1 UNL1     0.1342
     3 C         -2.063477   -0.557016   0.30872 C.3        1 UNL1     0.1174
     4 C         -2.908099   -1.320722   1.331698 C.3        1 UNL1     0.1456
     5 C         -2.344912   -1.212687   2.760514 C.3        1 UNL1     0.2326
     6 O         -0.999237   -1.682997   2.789412 O.3        1 UNL1     -0.3076
     7 O         -2.499716   0.095452   3.340281 O.3        1 UNL1     -0.4605
     8 C         -2.667949   0.134208   4.712769 C.ar        1 UNL1     0.1310
     9 C         -3.52821   -0.68903   5.447297 C.ar        1 UNL1     0.0226
     10 C         -3.615642   -0.584432   6.840609 C.ar        1 UNL1     0.1343
     11 C         -2.826554   0.330619   7.53621 C.ar        1 UNL1     0.1007
     12 C         -1.99394   1.186255   6.80997 C.ar        1 UNL1     0.1389
     13 C         -1.908162   1.08269   5.408775 C.ar        1 UNL1     0.0229
     14 C         -2.817096   0.425784   9.014387 C.2        1 UNL1     0.1740
     15 C         -1.75097   1.303271   9.601705 C.3        1 UNL1     0.0520
     16 C         -1.620204   2.54825   8.735169 C.3        1 UNL1     0.1322
     17 O         -1.255244   2.195567   7.382583 O.3        1 UNL1     -0.4828
     18 C         -2.81282   3.501616   8.842331 C.ar        1 UNL1     -0.0067
     19 C         -3.411893   3.996316   7.665642 C.ar        1 UNL1     -0.0516
     20 C         -4.473649   4.906661   7.728158 C.ar        1 UNL1     -0.0198
     21 C         -4.939574   5.33472   8.958405 C.ar        1 UNL1     0.1169
     22 C         -4.392229   4.83995   10.135034 C.ar        1 UNL1     -0.0198
     23 C         -3.342664   3.915498   10.072925 C.ar        1 UNL1     -0.0516
     24 O         -5.949957   6.250732   8.979562 O.3        1 UNL1     -0.5068
     25 O         -3.568222   -0.222319   9.738443 O.2        1 UNL1     -0.2917
     26 O         -4.474973   -1.416007   7.497586 O.3        1 UNL1     -0.5058
     27 O         0.456524   0.13956   2.514367 O.3        1 UNL1     -0.3648
     28 O         -0.256836   -2.014956   -0.291227 O.3        1 UNL1     -0.3841
     29 O         -2.331327   0.846689   0.307375 O.3        1 UNL1     -0.3863
     30 O         -2.959699   -2.7146   0.957358 O.3        1 UNL1     -0.3829
     31 H         0.765766   -1.725981   1.880244 H        1 UNL1     0.0937
     32 H         0.0   0.0   0.0 H        1 UNL1     0.0671
     33 H         -2.368942   -0.913286   -0.685002 H        1 UNL1     0.0649
     34 H         -3.938046   -0.947269   1.319732 H        1 UNL1     0.0683
     35 H         -2.94528   -1.928177   3.336285 H        1 UNL1     0.1085
     36 H         -4.126266   -1.458142   4.97094 H        1 UNL1     0.0691
     37 H         -1.253191   1.761289   4.866549 H        1 UNL1     0.0691
     38 H         -0.818169   0.729421   9.611928 H        1 UNL1     0.0385
     39 H         -2.015117   1.545153   10.636837 H        1 UNL1     0.0385
     40 H         -0.759205   3.116364   9.11259 H        1 UNL1     0.0789
     41 H         -3.058394   3.682773   6.687695 H        1 UNL1     0.0623
     42 H         -4.919376   5.289968   6.813601 H        1 UNL1     0.0654
     43 H         -4.759431   5.156962   11.103835 H        1 UNL1     0.0654
     44 H         -2.945929   3.541807   11.011968 H        1 UNL1     0.0623
     45 H         -5.645311   7.053889   8.526962 H        1 UNL1     0.2921
     46 H         -3.987112   -1.923325   8.165442 H        1 UNL1     0.2922
     47 H         1.180692   0.48518   1.974009 H        1 UNL1     0.2126
     48 H         0.713391   -2.123418   -0.266167 H        1 UNL1     0.2101
     49 H         -1.989581   1.247085   -0.507909 H        1 UNL1     0.2100
     50 H         -3.44628   -2.781333   0.109715 H        1 UNL1     0.2102
@<TRIPOS>BOND
     1     1     2    1
     2     1     6    1
     3     2     3    1
     4     3     4    1
     5     3    29    1
     6     3    33    1
     7     4     5    1
     8     5     6    1
     9     5     7    1
    10     5    35    1
    11     7     8    1
    12     8     9   ar
    13     8    13   ar
    14     9    10   ar
    15     9    36    1
    16    10    11   ar
    17    10    26    1
    18    11    12   ar
    19    11    14    1
    20    12    13   ar
    21    12    17    1
    22    13    37    1
    23    14    15    1
    24    14    25    2
    25    15    16    1
    26    15    38    1
    27    15    39    1
    28    16    17    1
    29    16    18    1
    30    16    40    1
    31    18    19   ar
    32    18    23   ar
    33    19    20   ar
    34    19    41    1
    35    20    21   ar
    36    20    42    1
    37    21    22   ar
    38    21    24    1
    39    22    23   ar
    40    22    43    1
    41    23    44    1
    42    24    45    1
    43    26    46    1
    44    27    47    1
    45    28    48    1
    46    29    49    1
    47    30    50    1
    48     1    31    1
    49     1    27    1
    50     2    32    1
    51     2    28    1
    52     4    34    1
    53     4    30    1
