@<TRIPOS>MOLECULE
*****
 50 53 0 0 0
SMALL
GASTEIGER

@<TRIPOS>ATOM
     1 C         0.324393   -1.211799   1.788048 C.3        1 UNL1     0.1889
     2 C         0.664152   -0.809358   0.327725 C.3        1 UNL1     0.1342
     3 C         0.591137   -1.959785   -0.687978 C.3        1 UNL1     0.1174
     4 C         1.032034   -3.301534   -0.097694 C.3        1 UNL1     0.1456
     5 C         0.400263   -3.576793   1.279064 C.3        1 UNL1     0.2326
     6 O         0.718225   -2.518544   2.180107 O.3        1 UNL1     -0.3076
     7 O         -1.008936   -3.862352   1.216329 O.3        1 UNL1     -0.4605
     8 C         -1.741119   -3.107055   0.318018 C.ar        1 UNL1     0.1310
     9 C         -2.95341   -2.466732   0.596655 C.ar        1 UNL1     0.0226
     10 C         -3.612112   -1.708245   -0.378389 C.ar        1 UNL1     0.1343
     11 C         -3.061927   -1.551945   -1.649887 C.ar        1 UNL1     0.1007
     12 C         -1.87255   -2.220191   -1.952564 C.ar        1 UNL1     0.1389
     13 C         -1.211769   -2.984947   -0.972795 C.ar        1 UNL1     0.0229
     14 C         -3.672444   -0.693905   -2.691613 C.2        1 UNL1     0.1740
     15 C         -2.835609   -0.463676   -3.915644 C.3        1 UNL1     0.0520
     16 C         -2.147175   -1.77139   -4.281568 C.3        1 UNL1     0.1322
     17 O         -1.299211   -2.223797   -3.202978 O.3        1 UNL1     -0.4828
     18 C         -3.099704   -2.836936   -4.829311 C.ar        1 UNL1     -0.0067
     19 C         -3.623209   -3.812565   -3.95621 C.ar        1 UNL1     -0.0516
     20 C         -4.459172   -4.829158   -4.433355 C.ar        1 UNL1     -0.0198
     21 C         -4.772455   -4.885244   -5.779659 C.ar        1 UNL1     0.1169
     22 C         -4.299425   -3.919407   -6.65843 C.ar        1 UNL1     -0.0198
     23 C         -3.478395   -2.892029   -6.178367 C.ar        1 UNL1     -0.0516
     24 O         -5.558707   -5.911592   -6.214193 O.3        1 UNL1     -0.5068
     25 O         -4.75505   -0.130342   -2.554333 O.2        1 UNL1     -0.2917
     26 O         -4.791643   -1.110124   -0.042916 O.3        1 UNL1     -0.5058
     27 O         -1.019449   -0.93858   2.151679 O.3        1 UNL1     -0.3648
     28 O         2.008741   -0.295689   0.297243 O.3        1 UNL1     -0.3841
     29 O         -0.701627   -2.019819   -1.294023 O.3        1 UNL1     -0.3863
     30 O         2.469478   -3.308377   0.041576 O.3        1 UNL1     -0.3829
     31 H         0.917619   -0.559658   2.438336 H        1 UNL1     0.0937
     32 H         0.0   0.0   -0.0 H        1 UNL1     0.0671
     33 H         1.286792   -1.728858   -1.506792 H        1 UNL1     0.0649
     34 H         0.772597   -4.115318   -0.783879 H        1 UNL1     0.0683
     35 H         0.926665   -4.470143   1.637818 H        1 UNL1     0.1085
     36 H         -3.404383   -2.503562   1.582245 H        1 UNL1     0.0691
     37 H         -0.287736   -3.496242   -1.234011 H        1 UNL1     0.0691
     38 H         -2.103283   0.314234   -3.674644 H        1 UNL1     0.0385
     39 H         -3.475595   -0.092521   -4.723382 H        1 UNL1     0.0385
     40 H         -1.452399   -1.552452   -5.103682 H        1 UNL1     0.0789
     41 H         -3.384843   -3.795746   -2.896706 H        1 UNL1     0.0623
     42 H         -4.846911   -5.582573   -3.752152 H        1 UNL1     0.0654
     43 H         -4.550767   -3.945183   -7.71203 H        1 UNL1     0.0654
     44 H         -3.135397   -2.148289   -6.891142 H        1 UNL1     0.0623
     45 H         -6.391174   -5.892863   -5.714829 H        1 UNL1     0.2921
     46 H         -4.879838   -1.087865   0.923075 H        1 UNL1     0.2922
     47 H         -1.254694   -0.032471   1.907781 H        1 UNL1     0.2126
     48 H         2.200975   0.038269   1.194601 H        1 UNL1     0.2101
     49 H         -0.723295   -1.453803   -2.082027 H        1 UNL1     0.2100
     50 H         2.720006   -2.557861   0.619221 H        1 UNL1     0.2102
@<TRIPOS>BOND
     1     1     2    1
     2     1     6    1
     3     2     3    1
     4     3     4    1
     5     3    29    1
     6     3    33    1
     7     4     5    1
     8     5     6    1
     9     5     7    1
    10     5    35    1
    11     7     8    1
    12     8     9   ar
    13     8    13   ar
    14     9    10   ar
    15     9    36    1
    16    10    11   ar
    17    10    26    1
    18    11    12   ar
    19    11    14    1
    20    12    13   ar
    21    12    17    1
    22    13    37    1
    23    14    15    1
    24    14    25    2
    25    15    16    1
    26    15    38    1
    27    15    39    1
    28    16    17    1
    29    16    18    1
    30    16    40    1
    31    18    19   ar
    32    18    23   ar
    33    19    20   ar
    34    19    41    1
    35    20    21   ar
    36    20    42    1
    37    21    22   ar
    38    21    24    1
    39    22    23   ar
    40    22    43    1
    41    23    44    1
    42    24    45    1
    43    26    46    1
    44    27    47    1
    45    28    48    1
    46    29    49    1
    47    30    50    1
    48     1    31    1
    49     1    27    1
    50     2    32    1
    51     2    28    1
    52     4    34    1
    53     4    30    1
