@<TRIPOS>MOLECULE
*****
 50 53 0 0 0
SMALL
GASTEIGER

@<TRIPOS>ATOM
     1 C         -0.330182   -1.327174   1.703054 C.3        1 UNL1     0.1889
     2 C         -0.461511   -0.975643   0.196695 C.3        1 UNL1     0.1342
     3 C         -1.902549   -0.964845   -0.335996 C.3        1 UNL1     0.1174
     4 C         -2.787665   -2.024337   0.325188 C.3        1 UNL1     0.1456
     5 C         -2.635474   -2.048235   1.857059 C.3        1 UNL1     0.2326
     6 O         -1.270257   -2.264793   2.206565 O.3        1 UNL1     -0.3076
     7 O         -3.21119   -0.901147   2.508258 O.3        1 UNL1     -0.4605
     8 C         -3.720065   -1.115935   3.776501 C.ar        1 UNL1     0.1310
     9 C         -4.535147   -2.18939   4.151516 C.ar        1 UNL1     0.0226
     10 C         -4.98732   -2.329007   5.46907 C.ar        1 UNL1     0.1343
     11 C         -4.615443   -1.410568   6.449896 C.ar        1 UNL1     0.1007
     12 C         -3.835579   -0.312046   6.078622 C.ar        1 UNL1     0.1389
     13 C         -3.38323   -0.170453   4.753193 C.ar        1 UNL1     0.0229
     14 C         -4.995254   -1.555461   7.874292 C.2        1 UNL1     0.1740
     15 C         -4.326804   -0.60566   8.824346 C.3        1 UNL1     0.0520
     16 C         -4.259224   0.765779   8.166664 C.3        1 UNL1     0.1322
     17 O         -3.501197   0.708556   6.938174 O.3        1 UNL1     -0.4828
     18 C         -5.619235   1.456702   8.041288 C.ar        1 UNL1     -0.0067
     19 C         -5.999513   2.017989   6.804938 C.ar        1 UNL1     -0.0516
     20 C         -7.215541   2.698156   6.668523 C.ar        1 UNL1     -0.0198
     21 C         -8.054829   2.829937   7.760337 C.ar        1 UNL1     0.1169
     22 C         -7.723333   2.259201   8.982307 C.ar        1 UNL1     -0.0198
     23 C         -6.515834   1.56307   9.114223 C.ar        1 UNL1     -0.0516
     24 O         -9.21332   3.531614   7.599251 O.3        1 UNL1     -0.5068
     25 O         -5.742944   -2.437527   8.288303 O.2        1 UNL1     -0.2917
     26 O         -5.7804   -3.397845   5.769391 O.3        1 UNL1     -0.5058
     27 O         -0.225576   -0.188143   2.542371 O.3        1 UNL1     -0.3648
     28 O         0.269605   -1.954079   -0.565433 O.3        1 UNL1     -0.3841
     29 O         -2.46112   0.348345   -0.260749 O.3        1 UNL1     -0.3863
     30 O         -2.43916   -3.325271   -0.196161 O.3        1 UNL1     -0.3829
     31 H         0.630978   -1.83909   1.82218 H        1 UNL1     0.0937
     32 H         0.0   0.0   0.0 H        1 UNL1     0.0671
     33 H         -1.865716   -1.205272   -1.407704 H        1 UNL1     0.0649
     34 H         -3.838037   -1.847145   0.068826 H        1 UNL1     0.0683
     35 H         -3.189289   -2.944328   2.163955 H        1 UNL1     0.1085
     36 H         -4.813168   -2.96702   3.448581 H        1 UNL1     0.0691
     37 H         -2.778194   0.694347   4.489481 H        1 UNL1     0.0691
     38 H         -3.323961   -0.994595   9.030652 H        1 UNL1     0.0385
     39 H         -4.886507   -0.586301   9.765694 H        1 UNL1     0.0385
     40 H         -3.664613   1.41217   8.826313 H        1 UNL1     0.0789
     41 H         -5.3541   1.936097   5.935233 H        1 UNL1     0.0623
     42 H         -7.492076   3.136863   5.712973 H        1 UNL1     0.0654
     43 H         -8.380157   2.343448   9.839859 H        1 UNL1     0.0654
     44 H         -6.293723   1.120838   10.080631 H        1 UNL1     0.0623
     45 H         -8.988363   4.438955   7.33687 H        1 UNL1     0.2921
     46 H         -5.375127   -3.909902   6.487001 H        1 UNL1     0.2922
     47 H         0.516917   0.365927   2.263855 H        1 UNL1     0.2126
     48 H         1.202449   -1.887676   -0.284142 H        1 UNL1     0.2101
     49 H         -2.022944   0.930575   -0.901689 H        1 UNL1     0.2100
     50 H         -2.672748   -3.341339   -1.147419 H        1 UNL1     0.2102
@<TRIPOS>BOND
     1     1     2    1
     2     1     6    1
     3     2     3    1
     4     3     4    1
     5     3    29    1
     6     3    33    1
     7     4     5    1
     8     5     6    1
     9     5     7    1
    10     5    35    1
    11     7     8    1
    12     8     9   ar
    13     8    13   ar
    14     9    10   ar
    15     9    36    1
    16    10    11   ar
    17    10    26    1
    18    11    12   ar
    19    11    14    1
    20    12    13   ar
    21    12    17    1
    22    13    37    1
    23    14    15    1
    24    14    25    2
    25    15    16    1
    26    15    38    1
    27    15    39    1
    28    16    17    1
    29    16    18    1
    30    16    40    1
    31    18    19   ar
    32    18    23   ar
    33    19    20   ar
    34    19    41    1
    35    20    21   ar
    36    20    42    1
    37    21    22   ar
    38    21    24    1
    39    22    23   ar
    40    22    43    1
    41    23    44    1
    42    24    45    1
    43    26    46    1
    44    27    47    1
    45    28    48    1
    46    29    49    1
    47    30    50    1
    48     1    31    1
    49     1    27    1
    50     2    32    1
    51     2    28    1
    52     4    34    1
    53     4    30    1
