@<TRIPOS>MOLECULE
*****
 50 53 0 0 0
SMALL
GASTEIGER

@<TRIPOS>ATOM
     1 C         -0.330276   -1.327176   1.703034 C.3        1 UNL1     0.1889
     2 C         -0.461625   -0.975591   0.196689 C.3        1 UNL1     0.1342
     3 C         -1.902684   -0.964599   -0.33594 C.3        1 UNL1     0.1174
     4 C         -2.787904   -2.023997   0.325254 C.3        1 UNL1     0.1456
     5 C         -2.635652   -2.047953   1.857119 C.3        1 UNL1     0.2326
     6 O         -1.270447   -2.264691   2.206561 O.3        1 UNL1     -0.3076
     7 O         -3.211197   -0.900809   2.508371 O.3        1 UNL1     -0.4605
     8 C         -3.723443   -1.116412   3.775118 C.ar        1 UNL1     0.1310
     9 C         -4.541046   -2.1891   4.146827 C.ar        1 UNL1     0.0226
     10 C         -4.996594   -2.329679   5.463116 C.ar        1 UNL1     0.1343
     11 C         -4.625688   -1.413033   6.445983 C.ar        1 UNL1     0.1007
     12 C         -3.843274   -0.315229   6.077962 C.ar        1 UNL1     0.1389
     13 C         -3.387528   -0.172665   4.753801 C.ar        1 UNL1     0.0229
     14 C         -5.009141   -1.559131   7.86928 C.2        1 UNL1     0.1740
     15 C         -4.341541   -0.611533   8.822127 C.3        1 UNL1     0.0520
     16 C         -4.270307   0.760623   8.166331 C.3        1 UNL1     0.1322
     17 O         -3.509416   0.703789   6.939593 O.3        1 UNL1     -0.4828
     18 C         -5.628967   1.453762   8.038555 C.ar        1 UNL1     -0.0067
     19 C         -6.005423   2.01717   6.802 C.ar        1 UNL1     -0.0516
     20 C         -7.22009   2.699349   6.663518 C.ar        1 UNL1     -0.0198
     21 C         -8.061799   2.831035   7.753478 C.ar        1 UNL1     0.1169
     22 C         -7.734106   2.25827   8.975523 C.ar        1 UNL1     -0.0198
     23 C         -6.52798   1.560146   9.109467 C.ar        1 UNL1     -0.0516
     24 O         -9.218838   3.534667   7.59049 O.3        1 UNL1     -0.5068
     25 O         -5.759156   -2.440581   8.280387 O.2        1 UNL1     -0.2917
     26 O         -5.792009   -3.39769   5.76019 O.3        1 UNL1     -0.5058
     27 O         -0.225492   -0.188179   2.542376 O.3        1 UNL1     -0.3648
     28 O         0.269336   -1.954098   -0.565495 O.3        1 UNL1     -0.3841
     29 O         -2.461087   0.34866   -0.260635 O.3        1 UNL1     -0.3863
     30 O         -2.439584   -3.324961   -0.196143 O.3        1 UNL1     -0.3829
     31 H         0.630825   -1.839216   1.822106 H        1 UNL1     0.0937
     32 H         0.0   0.0   0.0 H        1 UNL1     0.0671
     33 H         -1.865926   -1.205003   -1.407656 H        1 UNL1     0.0649
     34 H         -3.838266   -1.846666   0.068942 H        1 UNL1     0.0683
     35 H         -3.189566   -2.943984   2.164015 H        1 UNL1     0.1085
     36 H         -4.818551   -2.965428   3.442252 H        1 UNL1     0.0691
     37 H         -2.780552   0.691548   4.492629 H        1 UNL1     0.0691
     38 H         -3.339786   -1.002245   9.030353 H        1 UNL1     0.0385
     39 H         -4.903476   -0.592504   9.762152 H        1 UNL1     0.0385
     40 H         -3.676307   1.405287   8.828216 H        1 UNL1     0.0789
     41 H         -5.358046   1.935389   5.933746 H        1 UNL1     0.0623
     42 H         -7.493664   3.139669   5.707858 H        1 UNL1     0.0654
     43 H         -8.392861   2.342438   9.8316 H        1 UNL1     0.0654
     44 H         -6.308861   1.116369   10.075849 H        1 UNL1     0.0623
     45 H         -8.99188   4.441994   7.329789 H        1 UNL1     0.2921
     46 H         -5.389582   -3.910869   6.478599 H        1 UNL1     0.2922
     47 H         0.517058   0.365805   2.263843 H        1 UNL1     0.2126
     48 H         1.202201   -1.887819   -0.284241 H        1 UNL1     0.2101
     49 H         -2.022926   0.930829   -0.901639 H        1 UNL1     0.2100
     50 H         -2.673215   -3.340975   -1.147391 H        1 UNL1     0.2102
@<TRIPOS>BOND
     1     1     2    1
     2     1     6    1
     3     2     3    1
     4     3     4    1
     5     3    29    1
     6     3    33    1
     7     4     5    1
     8     5     6    1
     9     5     7    1
    10     5    35    1
    11     7     8    1
    12     8     9   ar
    13     8    13   ar
    14     9    10   ar
    15     9    36    1
    16    10    11   ar
    17    10    26    1
    18    11    12   ar
    19    11    14    1
    20    12    13   ar
    21    12    17    1
    22    13    37    1
    23    14    15    1
    24    14    25    2
    25    15    16    1
    26    15    38    1
    27    15    39    1
    28    16    17    1
    29    16    18    1
    30    16    40    1
    31    18    19   ar
    32    18    23   ar
    33    19    20   ar
    34    19    41    1
    35    20    21   ar
    36    20    42    1
    37    21    22   ar
    38    21    24    1
    39    22    23   ar
    40    22    43    1
    41    23    44    1
    42    24    45    1
    43    26    46    1
    44    27    47    1
    45    28    48    1
    46    29    49    1
    47    30    50    1
    48     1    31    1
    49     1    27    1
    50     2    32    1
    51     2    28    1
    52     4    34    1
    53     4    30    1
