@<TRIPOS>MOLECULE
*****
 50 53 0 0 0
SMALL
GASTEIGER

@<TRIPOS>ATOM
     1 C         -0.389285   -1.380717   1.647083 C.3        1 UNL1     0.1889
     2 C         -0.49167   -0.968575   0.1539 C.3        1 UNL1     0.1342
     3 C         -1.925041   -0.895659   -0.394366 C.3        1 UNL1     0.1174
     4 C         -2.848311   -1.953304   0.215614 C.3        1 UNL1     0.1456
     5 C         -2.716015   -2.039764   1.747079 C.3        1 UNL1     0.2326
     6 O         -1.362029   -2.309044   2.10356 O.3        1 UNL1     -0.3076
     7 O         -3.266751   -0.901972   2.435149 O.3        1 UNL1     -0.4605
     8 C         -3.80799   -1.152002   3.683377 C.ar        1 UNL1     0.1310
     9 C         -4.662606   -2.214015   3.998114 C.ar        1 UNL1     0.0226
     10 C         -5.145936   -2.392718   5.29979 C.ar        1 UNL1     0.1343
     11 C         -4.766945   -1.526612   6.324518 C.ar        1 UNL1     0.1007
     12 C         -3.946846   -0.438626   6.013862 C.ar        1 UNL1     0.1389
     13 C         -3.463117   -0.257637   4.704403 C.ar        1 UNL1     0.0229
     14 C         -5.180332   -1.71714   7.734115 C.2        1 UNL1     0.1740
     15 C         -4.503385   -0.827641   8.735156 C.3        1 UNL1     0.0520
     16 C         -4.380952   0.566512   8.135735 C.3        1 UNL1     0.1322
     17 O         -3.59974   0.535572   6.920902 O.3        1 UNL1     -0.4828
     18 C         -5.716659   1.303668   8.012393 C.ar        1 UNL1     -0.0067
     19 C         -5.725104   2.664637   7.643742 C.ar        1 UNL1     -0.0516
     20 C         -6.925622   3.380852   7.567874 C.ar        1 UNL1     -0.0198
     21 C         -8.120958   2.750857   7.864702 C.ar        1 UNL1     0.1169
     22 C         -8.148191   1.402955   8.198252 C.ar        1 UNL1     -0.0198
     23 C         -6.949613   0.681773   8.256248 C.ar        1 UNL1     -0.0516
     24 O         -9.26615   3.490213   7.81686 O.3        1 UNL1     -0.5068
     25 O         -5.962644   -2.591673   8.096971 O.2        1 UNL1     -0.2917
     26 O         -5.976881   -3.447783   5.540527 O.3        1 UNL1     -0.5058
     27 O         -0.262611   -0.277899   2.530561 O.3        1 UNL1     -0.3648
     28 O         0.220604   -1.938214   -0.636778 O.3        1 UNL1     -0.3841
     29 O         -2.446691   0.429415   -0.275228 O.3        1 UNL1     -0.3863
     30 O         -2.530701   -3.243089   -0.351192 O.3        1 UNL1     -0.3829
     31 H         0.555266   -1.92452   1.757449 H        1 UNL1     0.0937
     32 H         0.0   0.0   0.0 H        1 UNL1     0.0671
     33 H         -1.88172   -1.09619   -1.47401 H        1 UNL1     0.0649
     34 H         -3.889897   -1.736037   -0.045719 H        1 UNL1     0.0683
     35 H         -3.299043   -2.930379   2.013089 H        1 UNL1     0.1085
     36 H         -4.949312   -2.953629   3.258593 H        1 UNL1     0.0691
     37 H         -2.826992   0.59799   4.48821 H        1 UNL1     0.0691
     38 H         -3.517189   -1.255424   8.94479 H        1 UNL1     0.0385
     39 H         -5.081605   -0.829043   9.665445 H        1 UNL1     0.0385
     40 H         -3.780922   1.167016   8.832786 H        1 UNL1     0.0789
     41 H         -4.799276   3.184317   7.414773 H        1 UNL1     0.0623
     42 H         -6.917877   4.432967   7.294001 H        1 UNL1     0.0654
     43 H         -9.080158   0.895931   8.417969 H        1 UNL1     0.0654
     44 H         -7.009117   -0.372255   8.509882 H        1 UNL1     0.0623
     45 H         -9.028218   4.429004   7.88598 H        1 UNL1     0.2921
     46 H         -5.772711   -3.828742   6.409202 H        1 UNL1     0.2922
     47 H         -0.34844   -0.572333   3.448059 H        1 UNL1     0.2126
     48 H         1.171708   -1.786953   -0.47475 H        1 UNL1     0.2101
     49 H         -3.002342   0.495281   0.517683 H        1 UNL1     0.2100
     50 H         -2.780376   -3.225943   -1.298336 H        1 UNL1     0.2102
@<TRIPOS>BOND
     1     1     2    1
     2     1     6    1
     3     2     3    1
     4     3     4    1
     5     3    29    1
     6     3    33    1
     7     4     5    1
     8     5     6    1
     9     5     7    1
    10     5    35    1
    11     7     8    1
    12     8     9   ar
    13     8    13   ar
    14     9    10   ar
    15     9    36    1
    16    10    11   ar
    17    10    26    1
    18    11    12   ar
    19    11    14    1
    20    12    13   ar
    21    12    17    1
    22    13    37    1
    23    14    15    1
    24    14    25    2
    25    15    16    1
    26    15    38    1
    27    15    39    1
    28    16    17    1
    29    16    18    1
    30    16    40    1
    31    18    19   ar
    32    18    23   ar
    33    19    20   ar
    34    19    41    1
    35    20    21   ar
    36    20    42    1
    37    21    22   ar
    38    21    24    1
    39    22    23   ar
    40    22    43    1
    41    23    44    1
    42    24    45    1
    43    26    46    1
    44    27    47    1
    45    28    48    1
    46    29    49    1
    47    30    50    1
    48     1    31    1
    49     1    27    1
    50     2    32    1
    51     2    28    1
    52     4    34    1
    53     4    30    1
