@<TRIPOS>MOLECULE
*****
 50 53 0 0 0
SMALL
GASTEIGER

@<TRIPOS>ATOM
     1 C         -0.393828   -1.378364   1.647973 C.3        1 UNL1     0.1889
     2 C         -0.493035   -0.967844   0.154129 C.3        1 UNL1     0.1342
     3 C         -1.925325   -0.89396   -0.396829 C.3        1 UNL1     0.1174
     4 C         -2.850888   -1.949861   0.212697 C.3        1 UNL1     0.1456
     5 C         -2.721474   -2.034689   1.7445 C.3        1 UNL1     0.2326
     6 O         -1.368442   -2.305071   2.103756 O.3        1 UNL1     -0.3076
     7 O         -3.272184   -0.895482   2.430246 O.3        1 UNL1     -0.4605
     8 C         -4.609809   -0.633951   2.193839 C.ar        1 UNL1     0.1310
     9 C         -5.147551   -0.196736   0.978529 C.ar        1 UNL1     0.0226
     10 C         -6.522247   0.024674   0.833301 C.ar        1 UNL1     0.1343
     11 C         -7.396379   -0.208856   1.894054 C.ar        1 UNL1     0.1007
     12 C         -6.866438   -0.606176   3.124535 C.ar        1 UNL1     0.1389
     13 C         -5.483849   -0.82619   3.271066 C.ar        1 UNL1     0.0229
     14 C         -8.866191   -0.071825   1.771459 C.2        1 UNL1     0.1740
     15 C         -9.664768   -0.575655   2.937641 C.3        1 UNL1     0.0520
     16 C         -8.945066   -0.182325   4.220325 C.3        1 UNL1     0.1322
     17 O         -7.621816   -0.760416   4.263781 O.3        1 UNL1     -0.4828
     18 C         -8.991785   1.318375   4.517718 C.ar        1 UNL1     -0.0067
     19 C         -9.751333   1.784523   5.610425 C.ar        1 UNL1     -0.0516
     20 C         -9.853784   3.154116   5.881864 C.ar        1 UNL1     -0.0198
     21 C         -9.208882   4.066022   5.065558 C.ar        1 UNL1     0.1169
     22 C         -8.426246   3.63589   4.001929 C.ar        1 UNL1     -0.0198
     23 C         -8.308615   2.265385   3.741287 C.ar        1 UNL1     -0.0516
     24 O         -9.362452   5.393579   5.338337 O.3        1 UNL1     -0.5068
     25 O         -9.424159   0.347941   0.761037 O.2        1 UNL1     -0.2917
     26 O         -6.982736   0.451906   -0.377899 O.3        1 UNL1     -0.5058
     27 O         -0.267523   -0.274663   2.5304 O.3        1 UNL1     -0.3648
     28 O         0.219587   -1.939199   -0.634126 O.3        1 UNL1     -0.3841
     29 O         -2.445703   0.431834   -0.280178 O.3        1 UNL1     -0.3863
     30 O         -2.533695   -3.240659   -0.352033 O.3        1 UNL1     -0.3829
     31 H         0.54991   -1.923097   1.760688 H        1 UNL1     0.0937
     32 H         0.0   0.0   0.0 H        1 UNL1     0.0671
     33 H         -1.880265   -1.095795   -1.476158 H        1 UNL1     0.0649
     34 H         -3.891753   -1.731731   -0.050782 H        1 UNL1     0.0683
     35 H         -3.305984   -2.924341   2.010481 H        1 UNL1     0.1085
     36 H         -4.527993   -0.050784   0.100482 H        1 UNL1     0.0691
     37 H         -5.096202   -1.134213   4.239748 H        1 UNL1     0.0691
     38 H         -9.737554   -1.664404   2.843549 H        1 UNL1     0.0385
     39 H         -10.676675   -0.159492   2.886342 H        1 UNL1     0.0385
     40 H         -9.480848   -0.660133   5.051684 H        1 UNL1     0.0789
     41 H         -10.274448   1.089426   6.260687 H        1 UNL1     0.0623
     42 H         -10.452201   3.501746   6.720353 H        1 UNL1     0.0654
     43 H         -7.904744   4.340667   3.365347 H        1 UNL1     0.0654
     44 H         -7.680382   1.964345   2.908495 H        1 UNL1     0.0623
     45 H         -8.575852   5.701283   5.817184 H        1 UNL1     0.2921
     46 H         -7.831646   0.023441   -0.570721 H        1 UNL1     0.2922
     47 H         0.050349   -0.571531   3.39451 H        1 UNL1     0.2126
     48 H         1.168869   -1.812365   -0.443055 H        1 UNL1     0.2101
     49 H         -3.00272   0.499244   0.511644 H        1 UNL1     0.2100
     50 H         -1.580693   -3.244538   -0.578937 H        1 UNL1     0.2102
@<TRIPOS>BOND
     1     1     2    1
     2     1     6    1
     3     2     3    1
     4     3     4    1
     5     3    29    1
     6     3    33    1
     7     4     5    1
     8     5     6    1
     9     5     7    1
    10     5    35    1
    11     7     8    1
    12     8     9   ar
    13     8    13   ar
    14     9    10   ar
    15     9    36    1
    16    10    11   ar
    17    10    26    1
    18    11    12   ar
    19    11    14    1
    20    12    13   ar
    21    12    17    1
    22    13    37    1
    23    14    15    1
    24    14    25    2
    25    15    16    1
    26    15    38    1
    27    15    39    1
    28    16    17    1
    29    16    18    1
    30    16    40    1
    31    18    19   ar
    32    18    23   ar
    33    19    20   ar
    34    19    41    1
    35    20    21   ar
    36    20    42    1
    37    21    22   ar
    38    21    24    1
    39    22    23   ar
    40    22    43    1
    41    23    44    1
    42    24    45    1
    43    26    46    1
    44    27    47    1
    45    28    48    1
    46    29    49    1
    47    30    50    1
    48     1    31    1
    49     1    27    1
    50     2    32    1
    51     2    28    1
    52     4    34    1
    53     4    30    1
