@<TRIPOS>MOLECULE
*****
 50 53 0 0 0
SMALL
GASTEIGER

@<TRIPOS>ATOM
     1 C         -0.533351   -1.258218   1.703886 C.3        1 UNL1     0.1889
     2 C         -0.524877   -0.945766   0.18328 C.3        1 UNL1     0.1342
     3 C         -1.915909   -0.880826   -0.465781 C.3        1 UNL1     0.1174
     4 C         -2.90414   -1.875876   0.147727 C.3        1 UNL1     0.1456
     5 C         -2.877238   -1.861482   1.687023 C.3        1 UNL1     0.2326
     6 O         -1.557394   -2.133622   2.152663 O.3        1 UNL1     -0.3076
     7 O         -3.444443   -0.668874   2.259112 O.3        1 UNL1     -0.4605
     8 C         -4.074389   -0.823035   3.480967 C.ar        1 UNL1     0.1310
     9 C         -4.969093   -1.847715   3.807822 C.ar        1 UNL1     0.0226
     10 C         -5.54353   -1.92785   5.08199 C.ar        1 UNL1     0.1343
     11 C         -5.21849   -0.997939   6.068629 C.ar        1 UNL1     0.1007
     12 C         -4.357985   0.053442   5.741654 C.ar        1 UNL1     0.1389
     13 C         -3.782576   0.135308   4.459612 C.ar        1 UNL1     0.0229
     14 C         -5.730755   -1.08336   7.455871 C.2        1 UNL1     0.1740
     15 C         -5.106436   -0.136173   8.438018 C.3        1 UNL1     0.0520
     16 C         -4.916145   1.210718   7.754182 C.3        1 UNL1     0.1322
     17 O         -4.054605   1.083415   6.601528 O.3        1 UNL1     -0.4828
     18 C         -6.225651   1.957102   7.488039 C.ar        1 UNL1     -0.0067
     19 C         -6.228124   3.059411   6.608766 C.ar        1 UNL1     -0.0516
     20 C         -7.398292   3.793106   6.37994 C.ar        1 UNL1     -0.0198
     21 C         -8.568088   3.439883   7.028507 C.ar        1 UNL1     0.1169
     22 C         -8.605078   2.338978   7.874366 C.ar        1 UNL1     -0.0198
     23 C         -7.439401   1.593903   8.089115 C.ar        1 UNL1     -0.0516
     24 O         -9.678816   4.200789   6.81009 O.3        1 UNL1     -0.5068
     25 O         -6.552956   -1.918744   7.822755 O.2        1 UNL1     -0.2917
     26 O         -6.409437   -2.95112   5.336366 O.3        1 UNL1     -0.5058
     27 O         -0.438889   -0.101112   2.519342 O.3        1 UNL1     -0.3648
     28 O         0.214534   -1.980854   -0.490939 O.3        1 UNL1     -0.3841
     29 O         -2.41121   0.459617   -0.470388 O.3        1 UNL1     -0.3863
     30 O         -2.581396   -3.207168   -0.309645 O.3        1 UNL1     -0.3829
     31 H         0.387807   -1.812464   1.914499 H        1 UNL1     0.0937
     32 H         0.0   0.0   0.0 H        1 UNL1     0.0671
     33 H         -1.805153   -1.154589   -1.524321 H        1 UNL1     0.0649
     34 H         -3.920076   -1.655564   -0.198305 H        1 UNL1     0.0683
     35 H         -3.498829   -2.720057   1.970487 H        1 UNL1     0.1085
     36 H         -5.219072   -2.632887   3.102744 H        1 UNL1     0.0691
     37 H         -3.116571   0.964243   4.229837 H        1 UNL1     0.0691
     38 H         -4.1454   -0.56278   8.744516 H        1 UNL1     0.0385
     39 H         -5.746711   -0.064014   9.323805 H        1 UNL1     0.0385
     40 H         -4.353456   1.84954   8.448306 H        1 UNL1     0.0789
     41 H         -5.320677   3.362409   6.094584 H        1 UNL1     0.0623
     42 H         -7.384594   4.648338   5.70882 H        1 UNL1     0.0654
     43 H         -9.519322   2.044491   8.375709 H        1 UNL1     0.0654
     44 H         -7.507119   0.733628   8.748043 H        1 UNL1     0.0623
     45 H         -9.516842   5.089299   7.166505 H        1 UNL1     0.2921
     46 H         -6.107702   -3.444088   6.115693 H        1 UNL1     0.2922
     47 H         0.339481   0.418496   2.274376 H        1 UNL1     0.2126
     48 H         1.143455   -1.894355   -0.202226 H        1 UNL1     0.2101
     49 H         -2.025451   0.951428   -1.212754 H        1 UNL1     0.2100
     50 H         -2.765023   -3.248467   -1.271044 H        1 UNL1     0.2102
@<TRIPOS>BOND
     1     1     2    1
     2     1     6    1
     3     2     3    1
     4     3     4    1
     5     3    29    1
     6     3    33    1
     7     4     5    1
     8     5     6    1
     9     5     7    1
    10     5    35    1
    11     7     8    1
    12     8     9   ar
    13     8    13   ar
    14     9    10   ar
    15     9    36    1
    16    10    11   ar
    17    10    26    1
    18    11    12   ar
    19    11    14    1
    20    12    13   ar
    21    12    17    1
    22    13    37    1
    23    14    15    1
    24    14    25    2
    25    15    16    1
    26    15    38    1
    27    15    39    1
    28    16    17    1
    29    16    18    1
    30    16    40    1
    31    18    19   ar
    32    18    23   ar
    33    19    20   ar
    34    19    41    1
    35    20    21   ar
    36    20    42    1
    37    21    22   ar
    38    21    24    1
    39    22    23   ar
    40    22    43    1
    41    23    44    1
    42    24    45    1
    43    26    46    1
    44    27    47    1
    45    28    48    1
    46    29    49    1
    47    30    50    1
    48     1    31    1
    49     1    27    1
    50     2    32    1
    51     2    28    1
    52     4    34    1
    53     4    30    1
