@<TRIPOS>MOLECULE
*****
 50 53 0 0 0
SMALL
GASTEIGER

@<TRIPOS>ATOM
     1 C         -0.61373   -1.467733   1.496629 C.3        1 UNL1     0.1889
     2 C         -0.602081   -0.915957   0.045647 C.3        1 UNL1     0.1342
     3 C         -1.992256   -0.631705   -0.543486 C.3        1 UNL1     0.1174
     4 C         -3.053393   -1.62696   -0.067489 C.3        1 UNL1     0.1456
     5 C         -3.001126   -1.863273   1.452967 C.3        1 UNL1     0.2326
     6 O         -1.70274   -2.315784   1.830189 O.3        1 UNL1     -0.3076
     7 O         -3.453544   -0.735534   2.224228 O.3        1 UNL1     -0.4605
     8 C         -4.075194   -1.031769   3.423946 C.ar        1 UNL1     0.1310
     9 C         -5.050253   -2.017717   3.6096 C.ar        1 UNL1     0.0226
     10 C         -5.609358   -2.254209   4.871098 C.ar        1 UNL1     0.1343
     11 C         -5.189304   -1.525884   5.983274 C.ar        1 UNL1     0.1007
     12 C         -4.245995   -0.510813   5.802765 C.ar        1 UNL1     0.1389
     13 C         -3.685894   -0.27143   4.533744 C.ar        1 UNL1     0.0229
     14 C         -5.685161   -1.790981   7.353677 C.2        1 UNL1     0.1740
     15 C         -4.965567   -1.069839   8.455352 C.3        1 UNL1     0.0520
     16 C         -4.669807   0.349139   7.989535 C.3        1 UNL1     0.1322
     17 O         -3.840821   0.338157   6.806433 O.3        1 UNL1     -0.4828
     18 C         -5.91357   1.23499   7.884427 C.ar        1 UNL1     -0.0067
     19 C         -5.834138   2.460999   7.19247 C.ar        1 UNL1     -0.0516
     20 C         -6.939622   3.316762   7.118057 C.ar        1 UNL1     -0.0198
     21 C         -8.125324   2.96213   7.736261 C.ar        1 UNL1     0.1169
     22 C         -8.244469   1.746173   8.396633 C.ar        1 UNL1     -0.0198
     23 C         -7.144668   0.881863   8.455474 C.ar        1 UNL1     -0.0516
     24 O         -9.169073   3.838029   7.674703 O.3        1 UNL1     -0.5068
     25 O         -6.570931   -2.603262   7.606853 O.2        1 UNL1     -0.2917
     26 O         -6.556751   -3.229478   4.984606 O.3        1 UNL1     -0.5058
     27 O         -0.406317   -0.469197   2.48288 O.3        1 UNL1     -0.3648
     28 O         0.033944   -1.886647   -0.806373 O.3        1 UNL1     -0.3841
     29 O         -2.369286   0.728433   -0.319867 O.3        1 UNL1     -0.3863
     30 O         -2.854721   -2.889243   -0.740438 O.3        1 UNL1     -0.3829
     31 H         0.259014   -2.123374   1.589 H        1 UNL1     0.0937
     32 H         0.0   0.0   0.0 H        1 UNL1     0.0671
     33 H         -1.922363   -0.739434   -1.63492 H        1 UNL1     0.0649
     34 H         -4.051676   -1.269987   -0.343899 H        1 UNL1     0.0683
     35 H         -3.690395   -2.701597   1.614217 H        1 UNL1     0.1085
     36 H         -5.378538   -2.655356   2.796111 H        1 UNL1     0.0691
     37 H         -2.954114   0.525392   4.419442 H        1 UNL1     0.0691
     38 H         -4.040507   -1.61874   8.661502 H        1 UNL1     0.0385
     39 H         -5.583139   -1.088457   9.359805 H        1 UNL1     0.0385
     40 H         -4.042914   0.818609   8.759679 H        1 UNL1     0.0789
     41 H         -4.912009   2.766394   6.706608 H        1 UNL1     0.0623
     42 H         -6.862264   4.264884   6.591661 H        1 UNL1     0.0654
     43 H         -9.172832   1.451783   8.871382 H        1 UNL1     0.0654
     44 H         -7.276464   -0.064758   8.970628 H        1 UNL1     0.0623
     45 H         -8.92496   4.640837   8.163195 H        1 UNL1     0.2921
     46 H         -6.286742   -3.865039   5.666199 H        1 UNL1     0.2922
     47 H         0.410286   0.016536   2.300992 H        1 UNL1     0.2126
     48 H         0.971295   -1.925421   -0.535077 H        1 UNL1     0.2101
     49 H         -1.822634   1.316342   -0.865145 H        1 UNL1     0.2100
     50 H         -3.056346   -2.759543   -1.6903 H        1 UNL1     0.2102
@<TRIPOS>BOND
     1     1     2    1
     2     1     6    1
     3     2     3    1
     4     3     4    1
     5     3    29    1
     6     3    33    1
     7     4     5    1
     8     5     6    1
     9     5     7    1
    10     5    35    1
    11     7     8    1
    12     8     9   ar
    13     8    13   ar
    14     9    10   ar
    15     9    36    1
    16    10    11   ar
    17    10    26    1
    18    11    12   ar
    19    11    14    1
    20    12    13   ar
    21    12    17    1
    22    13    37    1
    23    14    15    1
    24    14    25    2
    25    15    16    1
    26    15    38    1
    27    15    39    1
    28    16    17    1
    29    16    18    1
    30    16    40    1
    31    18    19   ar
    32    18    23   ar
    33    19    20   ar
    34    19    41    1
    35    20    21   ar
    36    20    42    1
    37    21    22   ar
    38    21    24    1
    39    22    23   ar
    40    22    43    1
    41    23    44    1
    42    24    45    1
    43    26    46    1
    44    27    47    1
    45    28    48    1
    46    29    49    1
    47    30    50    1
    48     1    31    1
    49     1    27    1
    50     2    32    1
    51     2    28    1
    52     4    34    1
    53     4    30    1
