@<TRIPOS>MOLECULE
*****
 50 53 0 0 0
SMALL
GASTEIGER

@<TRIPOS>ATOM
     1 C         -0.39263   -1.377889   1.648657 C.3        1 UNL1     0.1889
     2 C         -0.492428   -0.968069   0.154659 C.3        1 UNL1     0.1342
     3 C         -1.924889   -0.895266   -0.395995 C.3        1 UNL1     0.1174
     4 C         -2.849688   -1.951452   0.2142 C.3        1 UNL1     0.1456
     5 C         -2.719866   -2.035545   1.746009 C.3        1 UNL1     0.2326
     6 O         -1.36659   -2.304974   2.105065 O.3        1 UNL1     -0.3076
     7 O         -3.271088   -0.896369   2.431394 O.3        1 UNL1     -0.4605
     8 C         -3.814438   -1.144127   3.679158 C.ar        1 UNL1     0.1310
     9 C         -4.670116   -2.205186   3.994226 C.ar        1 UNL1     0.0226
     10 C         -5.155605   -2.381562   5.295416 C.ar        1 UNL1     0.1343
     11 C         -4.777779   -1.514028   6.319366 C.ar        1 UNL1     0.1007
     12 C         -3.95661   -0.426971   6.008282 C.ar        1 UNL1     0.1389
     13 C         -3.470709   -0.248322   4.699307 C.ar        1 UNL1     0.0229
     14 C         -5.193501   -1.702095   7.728606 C.2        1 UNL1     0.1740
     15 C         -4.51767   -0.811363   8.729305 C.3        1 UNL1     0.0520
     16 C         -4.393546   0.58177   8.127864 C.3        1 UNL1     0.1322
     17 O         -3.610425   0.548484   6.914322 O.3        1 UNL1     -0.4828
     18 C         -5.728663   1.319435   8.001231 C.ar        1 UNL1     -0.0067
     19 C         -5.7358   2.679821   7.630403 C.ar        1 UNL1     -0.0516
     20 C         -6.935815   3.396549   7.551493 C.ar        1 UNL1     -0.0198
     21 C         -8.131955   2.76766   7.847424 C.ar        1 UNL1     0.1169
     22 C         -8.160434   1.420304   8.183074 C.ar        1 UNL1     -0.0198
     23 C         -6.962333   0.698582   8.244118 C.ar        1 UNL1     -0.0516
     24 O         -9.276677   3.507545   7.796591 O.3        1 UNL1     -0.5068
     25 O         -5.976853   -2.575636   8.091611 O.2        1 UNL1     -0.2917
     26 O         -5.987491   -3.435803   5.536512 O.3        1 UNL1     -0.5058
     27 O         -0.266771   -0.273734   2.53058 O.3        1 UNL1     -0.3648
     28 O         0.220583   -1.939341   -0.633345 O.3        1 UNL1     -0.3841
     29 O         -2.446023   0.430271   -0.279792 O.3        1 UNL1     -0.3863
     30 O         -2.531864   -3.242304   -0.350051 O.3        1 UNL1     -0.3829
     31 H         0.551455   -1.922016   1.761385 H        1 UNL1     0.0937
     32 H         0.0   0.0   0.0 H        1 UNL1     0.0671
     33 H         -1.879963   -1.097538   -1.475249 H        1 UNL1     0.0649
     34 H         -3.890742   -1.734049   -0.04913 H        1 UNL1     0.0683
     35 H         -3.303789   -2.925428   2.012508 H        1 UNL1     0.1085
     36 H         -4.956042   -2.945823   3.255428 H        1 UNL1     0.0691
     37 H         -2.833787   0.606624   4.482763 H        1 UNL1     0.0691
     38 H         -3.532035   -1.239334   8.941183 H        1 UNL1     0.0385
     39 H         -5.097365   -0.810979   9.658676 H        1 UNL1     0.0385
     40 H         -3.794303   1.183064   8.82491 H        1 UNL1     0.0789
     41 H         -4.809334   3.198645   7.402077 H        1 UNL1     0.0623
     42 H         -6.927076   4.448223   7.27596 H        1 UNL1     0.0654
     43 H         -9.093018   0.914124   8.402117 H        1 UNL1     0.0654
     44 H         -7.022799   -0.35501   8.499332 H        1 UNL1     0.0623
     45 H         -9.038356   4.446318   7.864595 H        1 UNL1     0.2921
     46 H         -5.784901   -3.815488   6.406114 H        1 UNL1     0.2922
     47 H         -0.354212   -0.566663   3.448407 H        1 UNL1     0.2126
     48 H         0.953032   -1.462607   -1.069206 H        1 UNL1     0.2101
     49 H         -3.002895   0.497692   0.512131 H        1 UNL1     0.2100
     50 H         -1.578952   -3.245657   -0.577338 H        1 UNL1     0.2102
@<TRIPOS>BOND
     1     1     2    1
     2     1     6    1
     3     2     3    1
     4     3     4    1
     5     3    29    1
     6     3    33    1
     7     4     5    1
     8     5     6    1
     9     5     7    1
    10     5    35    1
    11     7     8    1
    12     8     9   ar
    13     8    13   ar
    14     9    10   ar
    15     9    36    1
    16    10    11   ar
    17    10    26    1
    18    11    12   ar
    19    11    14    1
    20    12    13   ar
    21    12    17    1
    22    13    37    1
    23    14    15    1
    24    14    25    2
    25    15    16    1
    26    15    38    1
    27    15    39    1
    28    16    17    1
    29    16    18    1
    30    16    40    1
    31    18    19   ar
    32    18    23   ar
    33    19    20   ar
    34    19    41    1
    35    20    21   ar
    36    20    42    1
    37    21    22   ar
    38    21    24    1
    39    22    23   ar
    40    22    43    1
    41    23    44    1
    42    24    45    1
    43    26    46    1
    44    27    47    1
    45    28    48    1
    46    29    49    1
    47    30    50    1
    48     1    31    1
    49     1    27    1
    50     2    32    1
    51     2    28    1
    52     4    34    1
    53     4    30    1
