@<TRIPOS>MOLECULE
*****
 50 53 0 0 0
SMALL
GASTEIGER

@<TRIPOS>ATOM
     1 C         0.360365   -0.673793   2.046203 C.3        1 UNL1     0.1889
     2 C         0.028412   -0.94626   0.554388 C.3        1 UNL1     0.1342
     3 C         -1.286492   -1.705038   0.318272 C.3        1 UNL1     0.1174
     4 C         -1.581947   -2.734942   1.411488 C.3        1 UNL1     0.1456
     5 C         -1.376022   -2.167751   2.827911 C.3        1 UNL1     0.2326
     6 O         -0.044547   -1.676892   2.966112 O.3        1 UNL1     -0.3076
     7 O         -2.376138   -1.206512   3.211458 O.3        1 UNL1     -0.4605
     8 C         -2.695589   -1.168054   4.55682 C.ar        1 UNL1     0.1310
     9 C         -2.934447   -2.284629   5.365218 C.ar        1 UNL1     0.0226
     10 C         -3.23512   -2.142567   6.725114 C.ar        1 UNL1     0.1343
     11 C         -3.280839   -0.880344   7.31549 C.ar        1 UNL1     0.1007
     12 C         -3.084542   0.244287   6.509601 C.ar        1 UNL1     0.1389
     13 C         -2.784841   0.101306   5.141695 C.ar        1 UNL1     0.0229
     14 C         -3.511051   -0.676933   8.764552 C.2        1 UNL1     0.1740
     15 C         -3.306404   0.723058   9.264245 C.3        1 UNL1     0.0520
     16 C         -3.878017   1.689869   8.236387 C.3        1 UNL1     0.1322
     17 O         -3.213172   1.536638   6.962977 O.3        1 UNL1     -0.4828
     18 C         -5.406621   1.674965   8.159772 C.ar        1 UNL1     -0.0067
     19 C         -6.05119   2.287599   7.065503 C.ar        1 UNL1     -0.0516
     20 C         -7.448307   2.333351   6.988478 C.ar        1 UNL1     -0.0198
     21 C         -8.210355   1.777824   8.000654 C.ar        1 UNL1     0.1169
     22 C         -7.604804   1.138128   9.074402 C.ar        1 UNL1     -0.0198
     23 C         -6.207821   1.07601   9.142486 C.ar        1 UNL1     -0.0516
     24 O         -9.567847   1.874841   7.910076 O.3        1 UNL1     -0.5068
     25 O         -3.773696   -1.590575   9.542215 O.2        1 UNL1     -0.2917
     26 O         -3.458712   -3.271479   7.458019 O.3        1 UNL1     -0.5058
     27 O         -0.020107   0.621419   2.482613 O.3        1 UNL1     -0.3648
     28 O         1.08832   -1.739615   -0.011197 O.3        1 UNL1     -0.3841
     29 O         -2.367345   -0.793779   0.109715 O.3        1 UNL1     -0.3863
     30 O         -0.711739   -3.87419   1.236725 O.3        1 UNL1     -0.3829
     31 H         1.452701   -0.676217   2.129111 H        1 UNL1     0.0937
     32 H         -0.0   0.0   0.0 H        1 UNL1     0.0671
     33 H         -1.187977   -2.261456   -0.624285 H        1 UNL1     0.0649
     34 H         -2.610579   -3.099338   1.313847 H        1 UNL1     0.0683
     35 H         -1.46133   -3.0463   3.479641 H        1 UNL1     0.1085
     36 H         -2.85875   -3.295089   4.978745 H        1 UNL1     0.0691
     37 H         -2.637372   0.992675   4.535718 H        1 UNL1     0.0691
     38 H         -2.229376   0.874661   9.392902 H        1 UNL1     0.0385
     39 H         -3.786018   0.828404   10.243353 H        1 UNL1     0.0385
     40 H         -3.613359   2.704351   8.56396 H        1 UNL1     0.0789
     41 H         -5.475445   2.738926   6.262714 H        1 UNL1     0.0623
     42 H         -7.933494   2.819082   6.145465 H        1 UNL1     0.0654
     43 H         -8.19215   0.686571   9.864992 H        1 UNL1     0.0654
     44 H         -5.768509   0.559218   9.990293 H        1 UNL1     0.0623
     45 H         -9.809878   2.814991   7.926071 H        1 UNL1     0.2921
     46 H         -2.862054   -3.283993   8.223038 H        1 UNL1     0.2922
     47 H         0.370398   1.295953   1.909577 H        1 UNL1     0.2126
     48 H         1.885424   -1.175463   -0.020711 H        1 UNL1     0.2101
     49 H         -2.263585   -0.349178   -0.746648 H        1 UNL1     0.2100
     50 H         -0.968961   -4.325462   0.406122 H        1 UNL1     0.2102
@<TRIPOS>BOND
     1     1     2    1
     2     1     6    1
     3     2     3    1
     4     3     4    1
     5     3    29    1
     6     3    33    1
     7     4     5    1
     8     5     6    1
     9     5     7    1
    10     5    35    1
    11     7     8    1
    12     8     9   ar
    13     8    13   ar
    14     9    10   ar
    15     9    36    1
    16    10    11   ar
    17    10    26    1
    18    11    12   ar
    19    11    14    1
    20    12    13   ar
    21    12    17    1
    22    13    37    1
    23    14    15    1
    24    14    25    2
    25    15    16    1
    26    15    38    1
    27    15    39    1
    28    16    17    1
    29    16    18    1
    30    16    40    1
    31    18    19   ar
    32    18    23   ar
    33    19    20   ar
    34    19    41    1
    35    20    21   ar
    36    20    42    1
    37    21    22   ar
    38    21    24    1
    39    22    23   ar
    40    22    43    1
    41    23    44    1
    42    24    45    1
    43    26    46    1
    44    27    47    1
    45    28    48    1
    46    29    49    1
    47    30    50    1
    48     1    31    1
    49     1    27    1
    50     2    32    1
    51     2    28    1
    52     4    34    1
    53     4    30    1
