@<TRIPOS>MOLECULE
*****
 50 53 0 0 0
SMALL
GASTEIGER

@<TRIPOS>ATOM
     1 C         0.92447   0.043606   1.978448 C.3        1 UNL1     0.1889
     2 C         -0.319063   0.022145   1.049414 C.3        1 UNL1     0.1342
     3 C         -1.291756   1.193881   1.252808 C.3        1 UNL1     0.1174
     4 C         -1.383844   1.64207   2.713548 C.3        1 UNL1     0.1456
     5 C         -0.000845   1.791817   3.373285 C.3        1 UNL1     0.2326
     6 O         0.716105   0.562664   3.283653 O.3        1 UNL1     -0.3076
     7 O         0.747621   2.920314   2.885827 O.3        1 UNL1     -0.4605
     8 C         1.601611   3.51944   3.794274 C.ar        1 UNL1     0.1310
     9 C         1.279493   3.84517   5.116182 C.ar        1 UNL1     0.0226
     10 C         2.221854   4.436344   5.966106 C.ar        1 UNL1     0.1343
     11 C         3.517764   4.694585   5.521394 C.ar        1 UNL1     0.1007
     12 C         3.839048   4.41144   4.19121 C.ar        1 UNL1     0.1389
     13 C         2.890539   3.819452   3.336041 C.ar        1 UNL1     0.0229
     14 C         4.577284   5.240273   6.401052 C.2        1 UNL1     0.1740
     15 C         5.962165   5.244922   5.823444 C.3        1 UNL1     0.0520
     16 C         5.872115   5.65221   4.359216 C.3        1 UNL1     0.1322
     17 O         5.050073   4.72359   3.618282 O.3        1 UNL1     -0.4828
     18 C         5.511471   7.124977   4.150374 C.ar        1 UNL1     -0.0067
     19 C         4.487043   7.46521   3.243179 C.ar        1 UNL1     -0.0516
     20 C         4.164373   8.804395   2.993323 C.ar        1 UNL1     -0.0198
     21 C         4.862134   9.810487   3.637324 C.ar        1 UNL1     0.1169
     22 C         5.853491   9.506362   4.561205 C.ar        1 UNL1     -0.0198
     23 C         6.163833   8.166911   4.825054 C.ar        1 UNL1     -0.0516
     24 O         4.545657   11.10357   3.340372 O.3        1 UNL1     -0.5068
     25 O         4.3773   5.596923   7.559193 O.2        1 UNL1     -0.2917
     26 O         1.843916   4.730333   7.243728 O.3        1 UNL1     -0.5058
     27 O         2.07585   0.605471   1.369008 O.3        1 UNL1     -0.3648
     28 O         -1.05268   -1.191563   1.297254 O.3        1 UNL1     -0.3841
     29 O         -0.984226   2.268553   0.362506 O.3        1 UNL1     -0.3863
     30 O         -2.151166   0.67208   3.45922 O.3        1 UNL1     -0.3829
     31 H         1.197978   -1.001666   2.159222 H        1 UNL1     0.0937
     32 H         0.0   0.0   -0.0 H        1 UNL1     0.0671
     33 H         -2.294631   0.85162   0.96157 H        1 UNL1     0.0649
     34 H         -1.920962   2.594743   2.779286 H        1 UNL1     0.0683
     35 H         -0.229823   1.950849   4.43449 H        1 UNL1     0.1085
     36 H         0.30662   3.618578   5.538433 H        1 UNL1     0.0691
     37 H         3.165236   3.609883   2.304482 H        1 UNL1     0.0691
     38 H         6.367869   4.23296   5.927676 H        1 UNL1     0.0385
     39 H         6.591364   5.92727   6.405071 H        1 UNL1     0.0385
     40 H         6.875624   5.534836   3.928271 H        1 UNL1     0.0789
     41 H         3.930764   6.694157   2.718124 H        1 UNL1     0.0623
     42 H         3.380442   9.054174   2.282638 H        1 UNL1     0.0654
     43 H         6.395907   10.286147   5.082388 H        1 UNL1     0.0654
     44 H         6.936685   7.965624   5.5606 H        1 UNL1     0.0623
     45 H         4.702853   11.248031   2.393198 H        1 UNL1     0.2921
     46 H         2.442956   4.290623   7.867602 H        1 UNL1     0.2922
     47 H         2.281835   0.137811   0.547592 H        1 UNL1     0.2126
     48 H         -0.454119   -1.930514   1.074973 H        1 UNL1     0.2101
     49 H         -1.193098   2.011467   -0.549674 H        1 UNL1     0.2100
     50 H         -3.069691   0.688229   3.11898 H        1 UNL1     0.2102
@<TRIPOS>BOND
     1     1     2    1
     2     1     6    1
     3     2     3    1
     4     3     4    1
     5     3    29    1
     6     3    33    1
     7     4     5    1
     8     5     6    1
     9     5     7    1
    10     5    35    1
    11     7     8    1
    12     8     9   ar
    13     8    13   ar
    14     9    10   ar
    15     9    36    1
    16    10    11   ar
    17    10    26    1
    18    11    12   ar
    19    11    14    1
    20    12    13   ar
    21    12    17    1
    22    13    37    1
    23    14    15    1
    24    14    25    2
    25    15    16    1
    26    15    38    1
    27    15    39    1
    28    16    17    1
    29    16    18    1
    30    16    40    1
    31    18    19   ar
    32    18    23   ar
    33    19    20   ar
    34    19    41    1
    35    20    21   ar
    36    20    42    1
    37    21    22   ar
    38    21    24    1
    39    22    23   ar
    40    22    43    1
    41    23    44    1
    42    24    45    1
    43    26    46    1
    44    27    47    1
    45    28    48    1
    46    29    49    1
    47    30    50    1
    48     1    31    1
    49     1    27    1
    50     2    32    1
    51     2    28    1
    52     4    34    1
    53     4    30    1
