@<TRIPOS>MOLECULE
*****
 50 53 0 0 0
SMALL
GASTEIGER

@<TRIPOS>ATOM
     1 C         -1.114326   -1.206761   -1.439726 C.3        1 UNL1     0.1889
     2 C         -1.027843   -0.355235   -0.144594 C.3        1 UNL1     0.1342
     3 C         -1.492491   -1.077014   1.129613 C.3        1 UNL1     0.1174
     4 C         -2.652577   -2.042713   0.87517 C.3        1 UNL1     0.1456
     5 C         -2.418316   -2.934892   -0.357511 C.3        1 UNL1     0.2326
     6 O         -2.195952   -2.124185   -1.509108 O.3        1 UNL1     -0.3076
     7 O         -1.39679   -3.929205   -0.15966 O.3        1 UNL1     -0.4605
     8 C         -1.420133   -4.588733   1.056073 C.ar        1 UNL1     0.1310
     9 C         -2.550614   -5.168523   1.64187 C.ar        1 UNL1     0.0226
     10 C         -2.468727   -5.831517   2.872169 C.ar        1 UNL1     0.1343
     11 C         -1.248443   -5.951555   3.535748 C.ar        1 UNL1     0.1007
     12 C         -0.120527   -5.341237   2.980678 C.ar        1 UNL1     0.1389
     13 C         -0.203646   -4.672378   1.744899 C.ar        1 UNL1     0.0229
     14 C         -1.088686   -6.713069   4.796196 C.2        1 UNL1     0.1740
     15 C         0.325218   -6.926763   5.250905 C.3        1 UNL1     0.0520
     16 C         1.109449   -5.645272   5.004491 C.3        1 UNL1     0.1322
     17 O         1.106912   -5.304452   3.600602 O.3        1 UNL1     -0.4828
     18 C         0.720197   -4.495698   5.937061 C.ar        1 UNL1     -0.0067
     19 C         1.189191   -3.194077   5.664957 C.ar        1 UNL1     -0.0516
     20 C         0.891152   -2.129082   6.523399 C.ar        1 UNL1     -0.0198
     21 C         0.132931   -2.353619   7.658525 C.ar        1 UNL1     0.1169
     22 C         -0.371253   -3.617665   7.935697 C.ar        1 UNL1     -0.0198
     23 C         -0.088814   -4.679165   7.067652 C.ar        1 UNL1     -0.0516
     24 O         -0.105248   -1.299726   8.490981 O.3        1 UNL1     -0.5068
     25 O         -2.028628   -7.216538   5.405713 O.2        1 UNL1     -0.2917
     26 O         -3.608417   -6.374323   3.389908 O.3        1 UNL1     -0.5058
     27 O         0.11487   -1.818258   -1.797408 O.3        1 UNL1     -0.3648
     28 O         -1.861472   0.807319   -0.306569 O.3        1 UNL1     -0.3841
     29 O         -0.389066   -1.699493   1.790753 O.3        1 UNL1     -0.3863
     30 O         -3.865223   -1.284247   0.6754 O.3        1 UNL1     -0.3829
     31 H         -1.317178   -0.50926   -2.259739 H        1 UNL1     0.0937
     32 H         0.0   0.0   0.0 H        1 UNL1     0.0671
     33 H         -1.860962   -0.315426   1.830992 H        1 UNL1     0.0649
     34 H         -2.811851   -2.675981   1.754945 H        1 UNL1     0.0683
     35 H         -3.380749   -3.440818   -0.50462 H        1 UNL1     0.1085
     36 H         -3.516819   -5.158034   1.149471 H        1 UNL1     0.0691
     37 H         0.688768   -4.204646   1.334634 H        1 UNL1     0.0691
     38 H         0.737254   -7.759621   4.671163 H        1 UNL1     0.0385
     39 H         0.322798   -7.213943   6.307929 H        1 UNL1     0.0385
     40 H         2.162019   -5.860942   5.232753 H        1 UNL1     0.0789
     41 H         1.793872   -2.993632   4.785278 H        1 UNL1     0.0623
     42 H         1.2686   -1.1323   6.308995 H        1 UNL1     0.0654
     43 H         -0.978631   -3.801559   8.813868 H        1 UNL1     0.0654
     44 H         -0.50782   -5.651175   7.30947 H        1 UNL1     0.0623
     45 H         -1.027403   -1.348174   8.790981 H        1 UNL1     0.2921
     46 H         -4.330082   -5.728456   3.331022 H        1 UNL1     0.2922
     47 H         0.771779   -1.682282   -1.100386 H        1 UNL1     0.2126
     48 H         -2.641276   0.674299   0.266094 H        1 UNL1     0.2101
     49 H         0.383632   -1.710884   1.203726 H        1 UNL1     0.2100
     50 H         -3.667735   -0.343992   0.866796 H        1 UNL1     0.2102
@<TRIPOS>BOND
     1     1     2    1
     2     1     6    1
     3     2     3    1
     4     3     4    1
     5     3    29    1
     6     3    33    1
     7     4     5    1
     8     5     6    1
     9     5     7    1
    10     5    35    1
    11     7     8    1
    12     8     9   ar
    13     8    13   ar
    14     9    10   ar
    15     9    36    1
    16    10    11   ar
    17    10    26    1
    18    11    12   ar
    19    11    14    1
    20    12    13   ar
    21    12    17    1
    22    13    37    1
    23    14    15    1
    24    14    25    2
    25    15    16    1
    26    15    38    1
    27    15    39    1
    28    16    17    1
    29    16    18    1
    30    16    40    1
    31    18    19   ar
    32    18    23   ar
    33    19    20   ar
    34    19    41    1
    35    20    21   ar
    36    20    42    1
    37    21    22   ar
    38    21    24    1
    39    22    23   ar
    40    22    43    1
    41    23    44    1
    42    24    45    1
    43    26    46    1
    44    27    47    1
    45    28    48    1
    46    29    49    1
    47    30    50    1
    48     1    31    1
    49     1    27    1
    50     2    32    1
    51     2    28    1
    52     4    34    1
    53     4    30    1
