@<TRIPOS>MOLECULE
*****
 50 53 0 0 0
SMALL
GASTEIGER

@<TRIPOS>ATOM
     1 C         -0.342942   -1.338356   1.691744 C.3        1 UNL1     0.1889
     2 C         -0.468513   -0.974031   0.187936 C.3        1 UNL1     0.1342
     3 C         -1.908244   -0.949285   -0.347814 C.3        1 UNL1     0.1174
     4 C         -2.80196   -2.007977   0.303001 C.3        1 UNL1     0.1456
     5 C         -2.653378   -2.04503   1.834965 C.3        1 UNL1     0.2326
     6 O         -1.29044   -2.273563   2.185737 O.3        1 UNL1     -0.3076
     7 O         -3.222818   -0.899272   2.493978 O.3        1 UNL1     -0.4605
     8 C         -3.736403   -1.120755   3.759167 C.ar        1 UNL1     0.1310
     9 C         -4.559837   -2.191527   4.123451 C.ar        1 UNL1     0.0226
     10 C         -5.016328   -2.338634   5.438699 C.ar        1 UNL1     0.1343
     11 C         -4.640622   -1.430738   6.427846 C.ar        1 UNL1     0.1007
     12 C         -3.852241   -0.334686   6.067417 C.ar        1 UNL1     0.1389
     13 C         -3.395541   -0.185541   4.744311 C.ar        1 UNL1     0.0229
     14 C         -5.025063   -1.584484   7.85007 C.2        1 UNL1     0.1740
     15 C         -4.352496   -0.647034   8.809441 C.3        1 UNL1     0.0520
     16 C         -4.273763   0.729165   8.163041 C.3        1 UNL1     0.1322
     17 O         -3.513013   0.676606   6.936026 O.3        1 UNL1     -0.4828
     18 C         -5.628644   1.430485   8.039857 C.ar        1 UNL1     -0.0067
     19 C         -5.994343   2.019786   6.812176 C.ar        1 UNL1     -0.0516
     20 C         -7.205208   2.709744   6.67904 C.ar        1 UNL1     -0.0198
     21 C         -8.053763   2.823489   7.765706 C.ar        1 UNL1     0.1169
     22 C         -7.736765   2.225326   8.978369 C.ar        1 UNL1     -0.0198
     23 C         -6.534476   1.519552   9.106595 C.ar        1 UNL1     -0.0516
     24 O         -9.206746   3.535133   7.608881 O.3        1 UNL1     -0.5068
     25 O         -5.779883   -2.46466   8.255065 O.2        1 UNL1     -0.2917
     26 O         -5.817538   -3.40434   5.728385 O.3        1 UNL1     -0.5058
     27 O         -0.232553   -0.206738   2.540297 O.3        1 UNL1     -0.3648
     28 O         0.257708   -1.951317   -0.580323 O.3        1 UNL1     -0.3841
     29 O         -2.458125   0.367011   -0.263378 O.3        1 UNL1     -0.3863
     30 O         -2.461054   -3.307066   -0.227885 O.3        1 UNL1     -0.3829
     31 H         0.614479   -1.857679   1.808915 H        1 UNL1     0.0937
     32 H         0.0   0.0   0.0 H        1 UNL1     0.0671
     33 H         -1.870622   -1.181462   -1.421312 H        1 UNL1     0.0649
     34 H         -3.850537   -1.821672   0.045748 H        1 UNL1     0.0683
     35 H         -3.213905   -2.939764   2.133527 H        1 UNL1     0.1085
     36 H         -4.841426   -2.961515   3.413559 H        1 UNL1     0.0691
     37 H         -2.783872   0.677146   4.489113 H        1 UNL1     0.0691
     38 H         -3.352894   -1.044561   9.0151 H        1 UNL1     0.0385
     39 H         -4.914455   -0.631393   9.749513 H        1 UNL1     0.0385
     40 H         -3.676388   1.366078   8.829379 H        1 UNL1     0.0789
     41 H         -5.341416   1.952391   5.946846 H        1 UNL1     0.0623
     42 H         -7.470449   3.17   5.730449 H        1 UNL1     0.0654
     43 H         -8.400976   2.295397   9.831495 H        1 UNL1     0.0654
     44 H         -6.323776   1.055862   10.06547 H        1 UNL1     0.0623
     45 H         -8.974083   4.448712   7.376592 H        1 UNL1     0.2921
     46 H         -5.41885   -3.923611   6.444498 H        1 UNL1     0.2922
     47 H         0.511648   0.346732   2.265171 H        1 UNL1     0.2126
     48 H         1.1933   -1.881202   -0.309244 H        1 UNL1     0.2101
     49 H         -2.020506   0.949241   -0.904698 H        1 UNL1     0.2100
     50 H         -2.697839   -3.31593   -1.178447 H        1 UNL1     0.2102
@<TRIPOS>BOND
     1     1     2    1
     2     1     6    1
     3     2     3    1
     4     3     4    1
     5     3    29    1
     6     3    33    1
     7     4     5    1
     8     5     6    1
     9     5     7    1
    10     5    35    1
    11     7     8    1
    12     8     9   ar
    13     8    13   ar
    14     9    10   ar
    15     9    36    1
    16    10    11   ar
    17    10    26    1
    18    11    12   ar
    19    11    14    1
    20    12    13   ar
    21    12    17    1
    22    13    37    1
    23    14    15    1
    24    14    25    2
    25    15    16    1
    26    15    38    1
    27    15    39    1
    28    16    17    1
    29    16    18    1
    30    16    40    1
    31    18    19   ar
    32    18    23   ar
    33    19    20   ar
    34    19    41    1
    35    20    21   ar
    36    20    42    1
    37    21    22   ar
    38    21    24    1
    39    22    23   ar
    40    22    43    1
    41    23    44    1
    42    24    45    1
    43    26    46    1
    44    27    47    1
    45    28    48    1
    46    29    49    1
    47    30    50    1
    48     1    31    1
    49     1    27    1
    50     2    32    1
    51     2    28    1
    52     4    34    1
    53     4    30    1
