@<TRIPOS>MOLECULE
*****
 50 53 0 0 0
SMALL
GASTEIGER

@<TRIPOS>ATOM
     1 C         -1.273847   -1.741341   0.340369 C.3        1 UNL1     0.1889
     2 C         -0.476358   -0.509481   0.846802 C.3        1 UNL1     0.1342
     3 C         0.591024   -0.827475   1.905122 C.3        1 UNL1     0.1174
     4 C         0.175018   -1.961299   2.8456 C.3        1 UNL1     0.1456
     5 C         -0.407227   -3.17041   2.091011 C.3        1 UNL1     0.2326
     6 O         -1.519458   -2.759563   1.299167 O.3        1 UNL1     -0.3076
     7 O         0.577229   -3.908321   1.344248 O.3        1 UNL1     -0.4605
     8 C         0.888543   -5.165936   1.829031 C.ar        1 UNL1     0.1310
     9 C         1.115187   -6.302983   1.046052 C.ar        1 UNL1     0.0226
     10 C         1.44233   -7.531675   1.631882 C.ar        1 UNL1     0.1343
     11 C         1.574252   -7.64764   3.014991 C.ar        1 UNL1     0.1007
     12 C         1.310164   -6.529034   3.809825 C.ar        1 UNL1     0.1389
     13 C         0.978652   -5.294348   3.220689 C.ar        1 UNL1     0.0229
     14 C         1.999606   -8.90042   3.681152 C.2        1 UNL1     0.1740
     15 C         2.304747   -8.785672   5.145827 C.3        1 UNL1     0.0520
     16 C         1.267727   -7.871625   5.783843 C.3        1 UNL1     0.1322
     17 O         1.304921   -6.557389   5.18512 O.3        1 UNL1     -0.4828
     18 C         -0.129601   -8.490389   5.869465 C.ar        1 UNL1     -0.0067
     19 C         -0.876753   -8.351856   7.057231 C.ar        1 UNL1     -0.0516
     20 C         -2.138077   -8.945571   7.185793 C.ar        1 UNL1     -0.0198
     21 C         -2.658943   -9.684823   6.138877 C.ar        1 UNL1     0.1169
     22 C         -1.961646   -9.811272   4.944462 C.ar        1 UNL1     -0.0198
     23 C         -0.708347   -9.202231   4.808934 C.ar        1 UNL1     -0.0516
     24 O         -3.87361   -10.279955   6.314377 O.3        1 UNL1     -0.5068
     25 O         2.17683   -9.958051   3.082409 O.2        1 UNL1     -0.2917
     26 O         1.649858   -8.602553   0.812286 O.3        1 UNL1     -0.5058
     27 O         -0.775982   -2.276156   -0.875727 O.3        1 UNL1     -0.3648
     28 O         -1.401868   0.421408   1.438057 O.3        1 UNL1     -0.3841
     29 O         1.861349   -1.055342   1.291541 O.3        1 UNL1     -0.3863
     30 O         -0.818875   -1.468991   3.770533 O.3        1 UNL1     -0.3829
     31 H         -2.276892   -1.381691   0.086141 H        1 UNL1     0.0937
     32 H         0.0   0.0   0.0 H        1 UNL1     0.0671
     33 H         0.723993   0.068718   2.527117 H        1 UNL1     0.0649
     34 H         1.034516   -2.286872   3.441977 H        1 UNL1     0.0683
     35 H         -0.802718   -3.813611   2.8871 H        1 UNL1     0.1085
     36 H         1.082838   -6.26503   -0.037292 H        1 UNL1     0.0691
     37 H         0.776689   -4.438823   3.86161 H        1 UNL1     0.0691
     38 H         3.312454   -8.367674   5.242425 H        1 UNL1     0.0385
     39 H         2.305222   -9.786105   5.591822 H        1 UNL1     0.0385
     40 H         1.577321   -7.707896   6.824931 H        1 UNL1     0.0789
     41 H         -0.486015   -7.784268   7.896765 H        1 UNL1     0.0623
     42 H         -2.699296   -8.841447   8.111106 H        1 UNL1     0.0654
     43 H         -2.366815   -10.375348   4.112857 H        1 UNL1     0.0654
     44 H         -0.196077   -9.312839   3.858044 H        1 UNL1     0.0623
     45 H         -4.468886   -9.642209   6.740574 H        1 UNL1     0.2921
     46 H         1.283597   -9.40102   1.224252 H        1 UNL1     0.2922
     47 H         -0.801035   -3.242924   -0.851419 H        1 UNL1     0.2126
     48 H         -1.800037   -0.030259   2.206946 H        1 UNL1     0.2101
     49 H         1.820916   -1.848476   0.733779 H        1 UNL1     0.2100
     50 H         -0.385976   -0.816412   4.359136 H        1 UNL1     0.2102
@<TRIPOS>BOND
     1     1     2    1
     2     1     6    1
     3     2     3    1
     4     3     4    1
     5     3    29    1
     6     3    33    1
     7     4     5    1
     8     5     6    1
     9     5     7    1
    10     5    35    1
    11     7     8    1
    12     8     9   ar
    13     8    13   ar
    14     9    10   ar
    15     9    36    1
    16    10    11   ar
    17    10    26    1
    18    11    12   ar
    19    11    14    1
    20    12    13   ar
    21    12    17    1
    22    13    37    1
    23    14    15    1
    24    14    25    2
    25    15    16    1
    26    15    38    1
    27    15    39    1
    28    16    17    1
    29    16    18    1
    30    16    40    1
    31    18    19   ar
    32    18    23   ar
    33    19    20   ar
    34    19    41    1
    35    20    21   ar
    36    20    42    1
    37    21    22   ar
    38    21    24    1
    39    22    23   ar
    40    22    43    1
    41    23    44    1
    42    24    45    1
    43    26    46    1
    44    27    47    1
    45    28    48    1
    46    29    49    1
    47    30    50    1
    48     1    31    1
    49     1    27    1
    50     2    32    1
    51     2    28    1
    52     4    34    1
    53     4    30    1
