@<TRIPOS>MOLECULE
*****
 50 53 0 0 0
SMALL
GASTEIGER

@<TRIPOS>ATOM
     1 C         -0.323001   -1.318387   1.711236 C.3        1 UNL1     0.1889
     2 C         -0.4659   -0.97189   0.204764 C.3        1 UNL1     0.1342
     3 C         -1.911666   -0.953925   -0.314758 C.3        1 UNL1     0.1174
     4 C         -2.797417   -2.005136   0.358679 C.3        1 UNL1     0.1456
     5 C         -2.631334   -2.024044   1.889176 C.3        1 UNL1     0.2326
     6 O         -1.264377   -2.247991   2.227029 O.3        1 UNL1     -0.3076
     7 O         -3.193724   -0.87076   2.541076 O.3        1 UNL1     -0.4605
     8 C         -3.692302   -1.07734   3.814761 C.ar        1 UNL1     0.1310
     9 C         -4.510738   -2.144077   4.201458 C.ar        1 UNL1     0.0226
     10 C         -4.951685   -2.27566   5.523636 C.ar        1 UNL1     0.1343
     11 C         -4.564975   -1.355813   6.49738 C.ar        1 UNL1     0.1007
     12 C         -3.781561   -0.263769   6.114648 C.ar        1 UNL1     0.1389
     13 C         -3.340498   -0.130242   4.784586 C.ar        1 UNL1     0.0229
     14 C         -4.932619   -1.492719   7.925753 C.2        1 UNL1     0.1740
     15 C         -4.249437   -0.543533   8.86589 C.3        1 UNL1     0.0520
     16 C         -4.179149   0.824873   8.202202 C.3        1 UNL1     0.1322
     17 O         -3.432804   0.758007   6.967063 O.3        1 UNL1     -0.4828
     18 C         -5.535819   1.524011   8.086544 C.ar        1 UNL1     -0.0067
     19 C         -5.923836   2.082906   6.851517 C.ar        1 UNL1     -0.0516
     20 C         -7.136703   2.770322   6.723546 C.ar        1 UNL1     -0.0198
     21 C         -7.96508   2.911734   7.822464 C.ar        1 UNL1     0.1169
     22 C         -7.626035   2.343646   9.043596 C.ar        1 UNL1     -0.0198
     23 C         -6.421839   1.640304   9.167209 C.ar        1 UNL1     -0.0516
     24 O         -9.120502   3.620193   7.669212 O.3        1 UNL1     -0.5068
     25 O         -5.682088   -2.368353   8.350071 O.2        1 UNL1     -0.2917
     26 O         -5.748776   -3.338213   5.835423 O.3        1 UNL1     -0.5058
     27 O         -0.203437   -0.176791   2.545052 O.3        1 UNL1     -0.3648
     28 O         0.251939   -1.957955   -0.560148 O.3        1 UNL1     -0.3841
     29 O         -2.461137   0.363104   -0.239594 O.3        1 UNL1     -0.3863
     30 O         -2.462013   -3.310299   -0.160691 O.3        1 UNL1     -0.3829
     31 H         0.635928   -1.83599   1.823585 H        1 UNL1     0.0937
     32 H         0.0   0.0   0.0 H        1 UNL1     0.0671
     33 H         -1.886201   -1.198754   -1.3858 H        1 UNL1     0.0649
     34 H         -3.848946   -1.822211   0.11124 H        1 UNL1     0.0683
     35 H         -3.188014   -2.915365   2.204665 H        1 UNL1     0.1085
     36 H         -4.800149   -2.922639   3.504175 H        1 UNL1     0.0691
     37 H         -2.732403   0.729627   4.511933 H        1 UNL1     0.0691
     38 H         -3.247244   -0.938085   9.064547 H        1 UNL1     0.0385
     39 H         -4.800345   -0.516919   9.812236 H        1 UNL1     0.0385
     40 H         -3.574401   1.470002   8.853822 H        1 UNL1     0.0789
     41 H         -5.286965   1.993491   5.976273 H        1 UNL1     0.0623
     42 H         -7.419189   3.20707   5.768839 H        1 UNL1     0.0654
     43 H         -8.274413   2.435441   9.906782 H        1 UNL1     0.0654
     44 H         -6.193696   1.200423   10.133284 H        1 UNL1     0.0623
     45 H         -8.892181   4.525044   7.4012 H        1 UNL1     0.2921
     46 H         -5.34021   -3.85006   6.551313 H        1 UNL1     0.2922
     47 H         0.539988   0.371417   2.257567 H        1 UNL1     0.2126
     48 H         1.187729   -1.896441   -0.287668 H        1 UNL1     0.2101
     49 H         -2.025156   0.940011   -0.886813 H        1 UNL1     0.2100
     50 H         -2.704417   -3.328572   -1.109701 H        1 UNL1     0.2102
@<TRIPOS>BOND
     1     1     2    1
     2     1     6    1
     3     2     3    1
     4     3     4    1
     5     3    29    1
     6     3    33    1
     7     4     5    1
     8     5     6    1
     9     5     7    1
    10     5    35    1
    11     7     8    1
    12     8     9   ar
    13     8    13   ar
    14     9    10   ar
    15     9    36    1
    16    10    11   ar
    17    10    26    1
    18    11    12   ar
    19    11    14    1
    20    12    13   ar
    21    12    17    1
    22    13    37    1
    23    14    15    1
    24    14    25    2
    25    15    16    1
    26    15    38    1
    27    15    39    1
    28    16    17    1
    29    16    18    1
    30    16    40    1
    31    18    19   ar
    32    18    23   ar
    33    19    20   ar
    34    19    41    1
    35    20    21   ar
    36    20    42    1
    37    21    22   ar
    38    21    24    1
    39    22    23   ar
    40    22    43    1
    41    23    44    1
    42    24    45    1
    43    26    46    1
    44    27    47    1
    45    28    48    1
    46    29    49    1
    47    30    50    1
    48     1    31    1
    49     1    27    1
    50     2    32    1
    51     2    28    1
    52     4    34    1
    53     4    30    1
