@<TRIPOS>MOLECULE
*****
 50 53 0 0 0
SMALL
GASTEIGER

@<TRIPOS>ATOM
     1 C         -0.318744   -1.35188   1.685713 C.3        1 UNL1     0.1889
     2 C         -0.469449   -0.973634   0.187662 C.3        1 UNL1     0.1342
     3 C         -1.918369   -0.937895   -0.322062 C.3        1 UNL1     0.1174
     4 C         -2.805084   -1.998472   0.33523 C.3        1 UNL1     0.1456
     5 C         -2.629404   -2.049813   1.86391 C.3        1 UNL1     0.2326
     6 O         -1.261471   -2.287348   2.188265 O.3        1 UNL1     -0.3076
     7 O         -3.181877   -0.907521   2.543075 O.3        1 UNL1     -0.4605
     8 C         -3.684114   -1.140373   3.810776 C.ar        1 UNL1     0.1310
     9 C         -4.513023   -2.208485   4.170427 C.ar        1 UNL1     0.0226
     10 C         -4.956997   -2.368086   5.4885 C.ar        1 UNL1     0.1343
     11 C         -4.563038   -1.475898   6.484812 C.ar        1 UNL1     0.1007
     12 C         -3.768918   -0.382256   6.1297 C.ar        1 UNL1     0.1389
     13 C         -3.324799   -0.22052   4.803793 C.ar        1 UNL1     0.0229
     14 C         -4.933908   -1.644096   7.909002 C.2        1 UNL1     0.1740
     15 C         -4.243169   -0.724542   8.872771 C.3        1 UNL1     0.0520
     16 C         -4.159173   0.658903   8.242705 C.3        1 UNL1     0.1322
     17 O         -3.411791   0.615138   7.007159 O.3        1 UNL1     -0.4828
     18 C         -5.509084   1.373351   8.142564 C.ar        1 UNL1     -0.0067
     19 C         -5.882441   1.981083   6.926225 C.ar        1 UNL1     -0.0516
     20 C         -7.088554   2.683055   6.814469 C.ar        1 UNL1     -0.0198
     21 C         -7.924666   2.790509   7.911373 C.ar        1 UNL1     0.1169
     22 C         -7.60024   2.174524   9.1131 C.ar        1 UNL1     -0.0198
     23 C         -6.402893   1.456873   9.21984 C.ar        1 UNL1     -0.0516
     24 O         -9.07296   3.513963   7.775588 O.3        1 UNL1     -0.5068
     25 O         -5.692117   -2.522733   8.310999 O.2        1 UNL1     -0.2917
     26 O         -5.76442   -3.430391   5.77339 O.3        1 UNL1     -0.5058
     27 O         -0.18819   -0.228354   2.54212 O.3        1 UNL1     -0.3648
     28 O         0.238588   -1.947165   -0.602039 O.3        1 UNL1     -0.3841
     29 O         -2.460758   0.379959   -0.216203 O.3        1 UNL1     -0.3863
     30 O         -2.479509   -3.294241   -0.213108 O.3        1 UNL1     -0.3829
     31 H         0.638277   -1.876357   1.781183 H        1 UNL1     0.0937
     32 H         0.0   0.0   0.0 H        1 UNL1     0.0671
     33 H         -1.900915   -1.160661   -1.398069 H        1 UNL1     0.0649
     34 H         -3.857231   -1.805354   0.098392 H        1 UNL1     0.0683
     35 H         -3.188525   -2.944741   2.164519 H        1 UNL1     0.1085
     36 H         -4.808746   -2.967083   3.454049 H        1 UNL1     0.0691
     37 H         -2.708315   0.63999   4.55287 H        1 UNL1     0.0691
     38 H         -3.244985   -1.133203   9.062903 H        1 UNL1     0.0385
     39 H         -4.795104   -0.715815   9.818852 H        1 UNL1     0.0385
     40 H         -3.549313   1.282266   8.910544 H        1 UNL1     0.0789
     41 H         -5.239218   1.918891   6.053272 H        1 UNL1     0.0623
     42 H         -7.35967   3.157402   5.874521 H        1 UNL1     0.0654
     43 H         -8.254851   2.239642   9.974003 H        1 UNL1     0.0654
     44 H         -6.186234   0.979433   10.170606 H        1 UNL1     0.0623
     45 H         -8.834237   4.433307   7.574259 H        1 UNL1     0.2921
     46 H         -5.362817   -3.961989   6.478748 H        1 UNL1     0.2922
     47 H         0.543071   0.332997   2.248858 H        1 UNL1     0.2126
     48 H         1.182654   -1.865903   -0.365675 H        1 UNL1     0.2101
     49 H         -2.032029   0.965983   -0.860067 H        1 UNL1     0.2100
     50 H         -2.733226   -3.293613   -1.159332 H        1 UNL1     0.2102
@<TRIPOS>BOND
     1     1     2    1
     2     1     6    1
     3     2     3    1
     4     3     4    1
     5     3    29    1
     6     3    33    1
     7     4     5    1
     8     5     6    1
     9     5     7    1
    10     5    35    1
    11     7     8    1
    12     8     9   ar
    13     8    13   ar
    14     9    10   ar
    15     9    36    1
    16    10    11   ar
    17    10    26    1
    18    11    12   ar
    19    11    14    1
    20    12    13   ar
    21    12    17    1
    22    13    37    1
    23    14    15    1
    24    14    25    2
    25    15    16    1
    26    15    38    1
    27    15    39    1
    28    16    17    1
    29    16    18    1
    30    16    40    1
    31    18    19   ar
    32    18    23   ar
    33    19    20   ar
    34    19    41    1
    35    20    21   ar
    36    20    42    1
    37    21    22   ar
    38    21    24    1
    39    22    23   ar
    40    22    43    1
    41    23    44    1
    42    24    45    1
    43    26    46    1
    44    27    47    1
    45    28    48    1
    46    29    49    1
    47    30    50    1
    48     1    31    1
    49     1    27    1
    50     2    32    1
    51     2    28    1
    52     4    34    1
    53     4    30    1
