@<TRIPOS>MOLECULE
*****
 50 53 0 0 0
SMALL
GASTEIGER

@<TRIPOS>ATOM
     1 C         -0.370668   -1.397909   1.636844 C.3        1 UNL1     0.1889
     2 C         -0.487796   -0.971325   0.14881 C.3        1 UNL1     0.1342
     3 C         -1.92632   -0.896743   -0.385561 C.3        1 UNL1     0.1174
     4 C         -2.841285   -1.962759   0.222358 C.3        1 UNL1     0.1456
     5 C         -2.694716   -2.063977   1.751618 C.3        1 UNL1     0.2326
     6 O         -1.33684   -2.333229   2.093006 O.3        1 UNL1     -0.3076
     7 O         -3.241974   -0.934469   2.455919 O.3        1 UNL1     -0.4605
     8 C         -4.173341   -1.224813   3.436625 C.ar        1 UNL1     0.1310
     9 C         -5.236755   -2.124102   3.303475 C.ar        1 UNL1     0.0226
     10 C         -6.119206   -2.363489   4.363606 C.ar        1 UNL1     0.1343
     11 C         -5.945314   -1.726584   5.591593 C.ar        1 UNL1     0.1007
     12 C         -4.911542   -0.795629   5.723589 C.ar        1 UNL1     0.1389
     13 C         -4.025966   -0.553127   4.656641 C.ar        1 UNL1     0.0229
     14 C         -6.797195   -2.005041   6.770964 C.2        1 UNL1     0.1740
     15 C         -6.3327   -1.402372   8.064248 C.3        1 UNL1     0.0520
     16 C         -5.817492   0.002515   7.783521 C.3        1 UNL1     0.1322
     17 O         -4.7146   -0.032561   6.851067 O.3        1 UNL1     -0.4828
     18 C         -6.919311   1.002787   7.425505 C.ar        1 UNL1     -0.0067
     19 C         -6.603175   2.372851   7.319686 C.ar        1 UNL1     -0.0516
     20 C         -7.595958   3.319645   7.040535 C.ar        1 UNL1     -0.0198
     21 C         -8.906903   2.910866   6.872751 C.ar        1 UNL1     0.1169
     22 C         -9.243694   1.565066   6.937821 C.ar        1 UNL1     -0.0198
     23 C         -8.247994   0.616073   7.198684 C.ar        1 UNL1     -0.0516
     24 O         -9.852808   3.865507   6.639673 O.3        1 UNL1     -0.5068
     25 O         -7.778579   -2.742756   6.737095 O.2        1 UNL1     -0.2917
     26 O         -7.136522   -3.251523   4.168545 O.3        1 UNL1     -0.5058
     27 O         -0.238665   -0.303534   2.529988 O.3        1 UNL1     -0.3648
     28 O         0.219627   -1.931256   -0.657907 O.3        1 UNL1     -0.3841
     29 O         -2.450188   0.425726   -0.248555 O.3        1 UNL1     -0.3863
     30 O         -2.525645   -3.246056   -0.360059 O.3        1 UNL1     -0.3829
     31 H         0.576222   -1.940309   1.733174 H        1 UNL1     0.0937
     32 H         0.0   0.0   0.0 H        1 UNL1     0.0671
     33 H         -1.892408   -1.0865   -1.467487 H        1 UNL1     0.0649
     34 H         -3.88577   -1.745642   -0.027266 H        1 UNL1     0.0683
     35 H         -3.273033   -2.958691   2.014134 H        1 UNL1     0.1085
     36 H         -5.392351   -2.692391   2.393003 H        1 UNL1     0.0691
     37 H         -3.229924   0.177259   4.784491 H        1 UNL1     0.0691
     38 H         -5.537718   -2.042586   8.461309 H        1 UNL1     0.0385
     39 H         -7.162362   -1.403918   8.779397 H        1 UNL1     0.0385
     40 H         -5.376205   0.377952   8.716706 H        1 UNL1     0.0789
     41 H         -5.583186   2.720171   7.456215 H        1 UNL1     0.0623
     42 H         -7.341592   4.374528   6.973212 H        1 UNL1     0.0654
     43 H         -10.264638   1.232434   6.793119 H        1 UNL1     0.0654
     44 H         -8.545005   -0.427725   7.232085 H        1 UNL1     0.0623
     45 H         -9.921525   4.428088   7.428024 H        1 UNL1     0.2921
     46 H         -7.101814   -3.938626   4.852721 H        1 UNL1     0.2922
     47 H         0.506463   0.254825   2.267539 H        1 UNL1     0.2126
     48 H         1.17179   -1.779295   -0.502902 H        1 UNL1     0.2101
     49 H         -2.134559   0.982904   -0.977749 H        1 UNL1     0.2100
     50 H         -2.782744   -3.219743   -1.305004 H        1 UNL1     0.2102
@<TRIPOS>BOND
     1     1     2    1
     2     1     6    1
     3     2     3    1
     4     3     4    1
     5     3    29    1
     6     3    33    1
     7     4     5    1
     8     5     6    1
     9     5     7    1
    10     5    35    1
    11     7     8    1
    12     8     9   ar
    13     8    13   ar
    14     9    10   ar
    15     9    36    1
    16    10    11   ar
    17    10    26    1
    18    11    12   ar
    19    11    14    1
    20    12    13   ar
    21    12    17    1
    22    13    37    1
    23    14    15    1
    24    14    25    2
    25    15    16    1
    26    15    38    1
    27    15    39    1
    28    16    17    1
    29    16    18    1
    30    16    40    1
    31    18    19   ar
    32    18    23   ar
    33    19    20   ar
    34    19    41    1
    35    20    21   ar
    36    20    42    1
    37    21    22   ar
    38    21    24    1
    39    22    23   ar
    40    22    43    1
    41    23    44    1
    42    24    45    1
    43    26    46    1
    44    27    47    1
    45    28    48    1
    46    29    49    1
    47    30    50    1
    48     1    31    1
    49     1    27    1
    50     2    32    1
    51     2    28    1
    52     4    34    1
    53     4    30    1
