@<TRIPOS>MOLECULE
*****
 50 53 0 0 0
SMALL
GASTEIGER

@<TRIPOS>ATOM
     1 C         -0.563724   -1.411555   1.568608 C.3        1 UNL1     0.1889
     2 C         -0.57663   -0.928632   0.093292 C.3        1 UNL1     0.1342
     3 C         -1.977867   -0.709894   -0.4976 C.3        1 UNL1     0.1174
     4 C         -3.008386   -1.709765   0.032876 C.3        1 UNL1     0.1456
     5 C         -2.939713   -1.872699   1.562288 C.3        1 UNL1     0.2326
     6 O         -1.627046   -2.271897   1.950122 O.3        1 UNL1     -0.3076
     7 O         -3.417558   -0.722439   2.283319 O.3        1 UNL1     -0.4605
     8 C         -4.012867   -0.977461   3.505653 C.ar        1 UNL1     0.1310
     9 C         -5.198729   -0.395575   3.966566 C.ar        1 UNL1     0.0226
     10 C         -5.732282   -0.732685   5.216198 C.ar        1 UNL1     0.1343
     11 C         -5.104912   -1.678569   6.025859 C.ar        1 UNL1     0.1007
     12 C         -3.898374   -2.236031   5.594249 C.ar        1 UNL1     0.1389
     13 C         -3.360702   -1.894936   4.338863 C.ar        1 UNL1     0.0229
     14 C         -5.668908   -2.133892   7.317657 C.2        1 UNL1     0.1740
     15 C         -4.983718   -3.311597   7.946205 C.3        1 UNL1     0.0520
     16 C         -3.481255   -3.150686   7.76001 C.3        1 UNL1     0.1322
     17 O         -3.141487   -3.094893   6.356972 O.3        1 UNL1     -0.4828
     18 C         -2.872215   -2.029379   8.60527 C.ar        1 UNL1     -0.0067
     19 C         -2.009285   -1.094499   7.997351 C.ar        1 UNL1     -0.0516
     20 C         -1.398135   -0.085215   8.75088 C.ar        1 UNL1     -0.0198
     21 C         -1.635499   -0.004799   10.111402 C.ar        1 UNL1     0.1169
     22 C         -2.506538   -0.890354   10.732628 C.ar        1 UNL1     -0.0198
     23 C         -3.132237   -1.888388   9.976001 C.ar        1 UNL1     -0.0516
     24 O         -0.993071   0.968097   10.819329 O.3        1 UNL1     -0.5068
     25 O         -6.678153   -1.649598   7.822999 O.2        1 UNL1     -0.2917
     26 O         -6.891289   -0.128331   5.607407 O.3        1 UNL1     -0.5058
     27 O         -0.377068   -0.362455   2.50527 O.3        1 UNL1     -0.3648
     28 O         0.079947   -1.920946   -0.717217 O.3        1 UNL1     -0.3841
     29 O         -2.390276   0.64865   -0.335085 O.3        1 UNL1     -0.3863
     30 O         -2.779882   -2.996556   -0.581652 O.3        1 UNL1     -0.3829
     31 H         0.327119   -2.038436   1.684784 H        1 UNL1     0.0937
     32 H         0.0   0.0   0.0 H        1 UNL1     0.0671
     33 H         -1.912248   -0.867003   -1.583294 H        1 UNL1     0.0649
     34 H         -4.017806   -1.393154   -0.252134 H        1 UNL1     0.0683
     35 H         -3.604848   -2.720708   1.768093 H        1 UNL1     0.1085
     36 H         -5.763416   0.30452   3.360664 H        1 UNL1     0.0691
     37 H         -2.419481   -2.34217   4.026491 H        1 UNL1     0.0691
     38 H         -5.349439   -4.213977   7.444721 H        1 UNL1     0.0385
     39 H         -5.266152   -3.36925   9.002939 H        1 UNL1     0.0385
     40 H         -3.009614   -4.075004   8.120162 H        1 UNL1     0.0789
     41 H         -1.799613   -1.141867   6.932718 H        1 UNL1     0.0623
     42 H         -0.725386   0.62242   8.272683 H        1 UNL1     0.0654
     43 H         -2.711247   -0.827102   11.794703 H        1 UNL1     0.0654
     44 H         -3.814941   -2.556543   10.492072 H        1 UNL1     0.0623
     45 H         -0.03614   0.825179   10.738249 H        1 UNL1     0.2921
     46 H         -7.55698   -0.804899   5.808709 H        1 UNL1     0.2922
     47 H         0.434327   0.12477   2.304994 H        1 UNL1     0.2126
     48 H         0.998685   -1.98431   -0.392196 H        1 UNL1     0.2101
     49 H         -1.857561   1.225698   -0.905193 H        1 UNL1     0.2100
     50 H         -2.963991   -2.909989   -1.539943 H        1 UNL1     0.2102
@<TRIPOS>BOND
     1     1     2    1
     2     1     6    1
     3     2     3    1
     4     3     4    1
     5     3    29    1
     6     3    33    1
     7     4     5    1
     8     5     6    1
     9     5     7    1
    10     5    35    1
    11     7     8    1
    12     8     9   ar
    13     8    13   ar
    14     9    10   ar
    15     9    36    1
    16    10    11   ar
    17    10    26    1
    18    11    12   ar
    19    11    14    1
    20    12    13   ar
    21    12    17    1
    22    13    37    1
    23    14    15    1
    24    14    25    2
    25    15    16    1
    26    15    38    1
    27    15    39    1
    28    16    17    1
    29    16    18    1
    30    16    40    1
    31    18    19   ar
    32    18    23   ar
    33    19    20   ar
    34    19    41    1
    35    20    21   ar
    36    20    42    1
    37    21    22   ar
    38    21    24    1
    39    22    23   ar
    40    22    43    1
    41    23    44    1
    42    24    45    1
    43    26    46    1
    44    27    47    1
    45    28    48    1
    46    29    49    1
    47    30    50    1
    48     1    31    1
    49     1    27    1
    50     2    32    1
    51     2    28    1
    52     4    34    1
    53     4    30    1
