@<TRIPOS>MOLECULE
*****
 50 53 0 0 0
SMALL
GASTEIGER

@<TRIPOS>ATOM
     1 C         -0.511669   -2.111715   -0.222839 C.3        1 UNL1     0.1889
     2 C         -0.172097   -0.870361   0.645303 C.3        1 UNL1     0.1342
     3 C         1.036442   -1.050402   1.576692 C.3        1 UNL1     0.1174
     4 C         1.156934   -2.474849   2.124004 C.3        1 UNL1     0.1456
     5 C         0.983957   -3.544125   1.029887 C.3        1 UNL1     0.2326
     6 O         -0.273697   -3.3753   0.379754 O.3        1 UNL1     -0.3076
     7 O         2.090903   -3.609798   0.112457 O.3        1 UNL1     -0.4605
     8 C         2.025998   -2.760666   -0.977629 C.ar        1 UNL1     0.1310
     9 C         2.979063   -1.791005   -1.307363 C.ar        1 UNL1     0.0226
     10 C         2.831728   -0.98893   -2.445286 C.ar        1 UNL1     0.1343
     11 C         1.738651   -1.153503   -3.294957 C.ar        1 UNL1     0.1007
     12 C         0.759477   -2.09038   -2.953986 C.ar        1 UNL1     0.1389
     13 C         0.906519   -2.894918   -1.808329 C.ar        1 UNL1     0.0229
     14 C         1.575987   -0.391453   -4.554709 C.2        1 UNL1     0.1740
     15 C         0.465509   -0.85136   -5.45297 C.3        1 UNL1     0.0520
     16 C         -0.737675   -1.204553   -4.589511 C.3        1 UNL1     0.1322
     17 O         -0.409218   -2.260063   -3.659413 O.3        1 UNL1     -0.4828
     18 C         -1.418928   0.01053   -3.955325 C.ar        1 UNL1     -0.0067
     19 C         -2.262582   0.82082   -4.742656 C.ar        1 UNL1     -0.0516
     20 C         -2.86347   1.966046   -4.206601 C.ar        1 UNL1     -0.0198
     21 C         -2.623308   2.315007   -2.889644 C.ar        1 UNL1     0.1169
     22 C         -1.824018   1.518765   -2.079724 C.ar        1 UNL1     -0.0198
     23 C         -1.237794   0.363396   -2.610308 C.ar        1 UNL1     -0.0516
     24 O         -3.195441   3.457825   -2.413165 O.3        1 UNL1     -0.5068
     25 O         2.335355   0.508771   -4.903197 O.2        1 UNL1     -0.2917
     26 O         3.796288   -0.06099   -2.710122 O.3        1 UNL1     -0.5058
     27 O         0.02445   -2.047846   -1.534816 O.3        1 UNL1     -0.3648
     28 O         -1.310084   -0.568019   1.473724 O.3        1 UNL1     -0.3841
     29 O         2.235403   -0.59696   0.945016 O.3        1 UNL1     -0.3863
     30 O         0.148281   -2.680015   3.137027 O.3        1 UNL1     -0.3829
     31 H         -1.596606   -2.100397   -0.37404 H        1 UNL1     0.0937
     32 H         0.0   0.0   0.0 H        1 UNL1     0.0671
     33 H         0.89432   -0.388339   2.442251 H        1 UNL1     0.0649
     34 H         2.130226   -2.607995   2.60916 H        1 UNL1     0.0683
     35 H         0.930472   -4.487327   1.587909 H        1 UNL1     0.1085
     36 H         3.878953   -1.652438   -0.718196 H        1 UNL1     0.0691
     37 H         0.129539   -3.61618   -1.564248 H        1 UNL1     0.0691
     38 H         0.826345   -1.726151   -6.004391 H        1 UNL1     0.0385
     39 H         0.238263   -0.060878   -6.176349 H        1 UNL1     0.0385
     40 H         -1.492888   -1.647994   -5.252484 H        1 UNL1     0.0789
     41 H         -2.459638   0.573426   -5.781702 H        1 UNL1     0.0623
     42 H         -3.502512   2.589275   -4.827265 H        1 UNL1     0.0654
     43 H         -1.641387   1.774567   -1.042843 H        1 UNL1     0.0654
     44 H         -0.62766   -0.241015   -1.946027 H        1 UNL1     0.0623
     45 H         -2.618974   3.824915   -1.723492 H        1 UNL1     0.2921
     46 H         4.080361   -0.144302   -3.634121 H        1 UNL1     0.2922
     47 H         -0.631489   -2.347792   -2.179514 H        1 UNL1     0.2126
     48 H         -1.111983   -0.923282   2.361573 H        1 UNL1     0.2101
     49 H         2.238314   -0.864241   0.012093 H        1 UNL1     0.2100
     50 H         -0.512732   -1.961747   3.054171 H        1 UNL1     0.2102
@<TRIPOS>BOND
     1     1     2    1
     2     1     6    1
     3     2     3    1
     4     3     4    1
     5     3    29    1
     6     3    33    1
     7     4     5    1
     8     5     6    1
     9     5     7    1
    10     5    35    1
    11     7     8    1
    12     8     9   ar
    13     8    13   ar
    14     9    10   ar
    15     9    36    1
    16    10    11   ar
    17    10    26    1
    18    11    12   ar
    19    11    14    1
    20    12    13   ar
    21    12    17    1
    22    13    37    1
    23    14    15    1
    24    14    25    2
    25    15    16    1
    26    15    38    1
    27    15    39    1
    28    16    17    1
    29    16    18    1
    30    16    40    1
    31    18    19   ar
    32    18    23   ar
    33    19    20   ar
    34    19    41    1
    35    20    21   ar
    36    20    42    1
    37    21    22   ar
    38    21    24    1
    39    22    23   ar
    40    22    43    1
    41    23    44    1
    42    24    45    1
    43    26    46    1
    44    27    47    1
    45    28    48    1
    46    29    49    1
    47    30    50    1
    48     1    31    1
    49     1    27    1
    50     2    32    1
    51     2    28    1
    52     4    34    1
    53     4    30    1
