@<TRIPOS>MOLECULE
*****
 50 53 0 0 0
SMALL
GASTEIGER

@<TRIPOS>ATOM
     1 C         0.246697   1.408506   -1.651077 C.3        1 UNL1     0.1889
     2 C         -0.179627   1.063868   -0.198695 C.3        1 UNL1     0.1342
     3 C         -1.641684   1.396342   0.136438 C.3        1 UNL1     0.1174
     4 C         -2.141259   2.657306   -0.573147 C.3        1 UNL1     0.1456
     5 C         -1.770255   2.680024   -2.067203 C.3        1 UNL1     0.2326
     6 O         -0.357574   2.561158   -2.219096 O.3        1 UNL1     -0.3076
     7 O         -2.506293   1.726769   -2.855159 O.3        1 UNL1     -0.4605
     8 C         -2.771766   2.096306   -4.161487 C.ar        1 UNL1     0.1310
     9 C         -3.532596   3.203624   -4.551723 C.ar        1 UNL1     0.0226
     10 C         -3.730837   3.505115   -5.904389 C.ar        1 UNL1     0.1343
     11 C         -3.152649   2.719431   -6.900501 C.ar        1 UNL1     0.1007
     12 C         -2.424927   1.587509   -6.523726 C.ar        1 UNL1     0.1389
     13 C         -2.227947   1.28307   -5.163599 C.ar        1 UNL1     0.0229
     14 C         -3.259782   3.040007   -8.342689 C.2        1 UNL1     0.1740
     15 C         -2.395427   2.221067   -9.255803 C.3        1 UNL1     0.0520
     16 C         -2.412913   0.778252   -8.77007 C.3        1 UNL1     0.1322
     17 O         -1.903479   0.685011   -7.421421 O.3        1 UNL1     -0.4828
     18 C         -3.750856   0.069146   -8.993228 C.ar        1 UNL1     -0.0067
     19 C         -3.845312   -1.319161   -8.765423 C.ar        1 UNL1     -0.0516
     20 C         -5.041032   -2.006712   -9.005196 C.ar        1 UNL1     -0.0198
     21 C         -6.144765   -1.320191   -9.478786 C.ar        1 UNL1     0.1169
     22 C         -6.092554   0.052853   -9.680934 C.ar        1 UNL1     -0.0198
     23 C         -4.902379   0.743763   -9.423674 C.ar        1 UNL1     -0.0516
     24 O         -7.280746   -2.029699   -9.736754 O.3        1 UNL1     -0.5068
     25 O         -3.941384   3.962751   -8.781376 O.2        1 UNL1     -0.2917
     26 O         -4.484092   4.598593   -6.218233 O.3        1 UNL1     -0.5058
     27 O         0.192554   0.299619   -2.53438 O.3        1 UNL1     -0.3648
     28 O         0.649045   1.81268   0.709759 O.3        1 UNL1     -0.3841
     29 O         -2.483711   0.263978   -0.089121 O.3        1 UNL1     -0.3863
     30 O         -1.56765   3.818852   0.06519 O.3        1 UNL1     -0.3829
     31 H         1.309781   1.669952   -1.611354 H        1 UNL1     0.0937
     32 H         0.0   0.0   0.0 H        1 UNL1     0.0671
     33 H         -1.701682   1.594164   1.215784 H        1 UNL1     0.0649
     34 H         -3.228906   2.738819   -0.469312 H        1 UNL1     0.0683
     35 H         -2.041898   3.692296   -2.391848 H        1 UNL1     0.1085
     36 H         -3.961816   3.885097   -3.82544 H        1 UNL1     0.0691
     37 H         -1.65838   0.395515   -4.896516 H        1 UNL1     0.0691
     38 H         -1.38369   2.638679   -9.216861 H        1 UNL1     0.0385
     39 H         -2.765763   2.316931   -10.282175 H        1 UNL1     0.0385
     40 H         -1.685093   0.223376   -9.37745 H        1 UNL1     0.0789
     41 H         -2.990479   -1.882391   -8.402543 H        1 UNL1     0.0623
     42 H         -5.097794   -3.079326   -8.837001 H        1 UNL1     0.0654
     43 H         -6.955396   0.602803   -10.03726 H        1 UNL1     0.0654
     44 H         -4.900419   1.81782   -9.582552 H        1 UNL1     0.0623
     45 H         -7.040728   -2.96427   -9.844852 H        1 UNL1     0.2921
     46 H         -4.045957   5.101919   -6.922586 H        1 UNL1     0.2922
     47 H         0.699163   0.485993   -3.33717 H        1 UNL1     0.2126
     48 H         0.896454   1.20206   1.430637 H        1 UNL1     0.2101
     49 H         -2.528108   -0.279402   0.713725 H        1 UNL1     0.2100
     50 H         -1.082107   3.516807   0.860633 H        1 UNL1     0.2102
@<TRIPOS>BOND
     1     1     2    1
     2     1     6    1
     3     2     3    1
     4     3     4    1
     5     3    29    1
     6     3    33    1
     7     4     5    1
     8     5     6    1
     9     5     7    1
    10     5    35    1
    11     7     8    1
    12     8     9   ar
    13     8    13   ar
    14     9    10   ar
    15     9    36    1
    16    10    11   ar
    17    10    26    1
    18    11    12   ar
    19    11    14    1
    20    12    13   ar
    21    12    17    1
    22    13    37    1
    23    14    15    1
    24    14    25    2
    25    15    16    1
    26    15    38    1
    27    15    39    1
    28    16    17    1
    29    16    18    1
    30    16    40    1
    31    18    19   ar
    32    18    23   ar
    33    19    20   ar
    34    19    41    1
    35    20    21   ar
    36    20    42    1
    37    21    22   ar
    38    21    24    1
    39    22    23   ar
    40    22    43    1
    41    23    44    1
    42    24    45    1
    43    26    46    1
    44    27    47    1
    45    28    48    1
    46    29    49    1
    47    30    50    1
    48     1    31    1
    49     1    27    1
    50     2    32    1
    51     2    28    1
    52     4    34    1
    53     4    30    1
