@<TRIPOS>MOLECULE
*****
 50 53 0 0 0
SMALL
GASTEIGER

@<TRIPOS>ATOM
     1 C         -0.316344   -1.374939   1.667415 C.3        1 UNL1     0.1889
     2 C         -0.45979   -0.980983   0.172704 C.3        1 UNL1     0.1342
     3 C         -1.905053   -0.955639   -0.34791 C.3        1 UNL1     0.1174
     4 C         -2.784699   -2.033729   0.290103 C.3        1 UNL1     0.1456
     5 C         -2.620231   -2.100897   1.819417 C.3        1 UNL1     0.2326
     6 O         -1.252228   -2.326765   2.151711 O.3        1 UNL1     -0.3076
     7 O         -3.190862   -0.972897   2.507397 O.3        1 UNL1     -0.4605
     8 C         -3.696769   -1.225361   3.769874 C.ar        1 UNL1     0.1310
     9 C         -4.513827   -2.307649   4.113924 C.ar        1 UNL1     0.0226
     10 C         -4.96268   -2.486657   5.427846 C.ar        1 UNL1     0.1343
     11 C         -4.585444   -1.599977   6.435483 C.ar        1 UNL1     0.1007
     12 C         -3.803522   -0.492653   6.096048 C.ar        1 UNL1     0.1389
     13 C         -3.35451   -0.311428   4.774316 C.ar        1 UNL1     0.0229
     14 C         -4.961651   -1.787757   7.855821 C.2        1 UNL1     0.1740
     15 C         -4.287842   -0.869593   8.832809 C.3        1 UNL1     0.0520
     16 C         -4.218233   0.521316   8.217599 C.3        1 UNL1     0.1322
     17 O         -3.463833   0.499989   6.985733 O.3        1 UNL1     -0.4828
     18 C         -5.57663   1.21951   8.117567 C.ar        1 UNL1     -0.0067
     19 C         -5.951302   1.835108   6.905596 C.ar        1 UNL1     -0.0516
     20 C         -7.165694   2.522781   6.7946 C.ar        1 UNL1     -0.0198
     21 C         -8.008898   2.608106   7.888014 C.ar        1 UNL1     0.1169
     22 C         -7.682969   1.983785   9.085024 C.ar        1 UNL1     -0.0198
     23 C         -6.477114   1.280376   9.190795 C.ar        1 UNL1     -0.0516
     24 O         -9.165625   3.318245   7.753527 O.3        1 UNL1     -0.5068
     25 O         -5.710665   -2.680137   8.244564 O.2        1 UNL1     -0.2917
     26 O         -5.757934   -3.562083   5.697317 O.3        1 UNL1     -0.5058
     27 O         -0.205165   -0.260069   2.537756 O.3        1 UNL1     -0.3648
     28 O         0.265324   -1.937204   -0.62263 O.3        1 UNL1     -0.3841
     29 O         -2.463177   0.354696   -0.23107 O.3        1 UNL1     -0.3863
     30 O         -2.440211   -3.319269   -0.270617 O.3        1 UNL1     -0.3829
     31 H         0.645809   -1.889674   1.764309 H        1 UNL1     0.0937
     32 H         0.0   0.0   0.0 H        1 UNL1     0.0671
     33 H         -1.876779   -1.165639   -1.426252 H        1 UNL1     0.0649
     34 H         -3.837117   -1.849733   0.047277 H        1 UNL1     0.0683
     35 H         -3.171449   -3.005513   2.105264 H        1 UNL1     0.1085
     36 H         -4.796026   -3.062429   3.38812 H        1 UNL1     0.0691
     37 H         -2.747773   0.559443   4.535681 H        1 UNL1     0.0691
     38 H         -3.285527   -1.267464   9.024094 H        1 UNL1     0.0385
     39 H         -4.844835   -0.877785   9.775927 H        1 UNL1     0.0385
     40 H         -3.619939   1.14539   8.895166 H        1 UNL1     0.0789
     41 H         -5.302732   1.790241   6.035542 H        1 UNL1     0.0623
     42 H         -7.437889   3.003429   5.858171 H        1 UNL1     0.0654
     43 H         -8.3429   2.031558   9.942997 H        1 UNL1     0.0654
     44 H         -6.25939   0.795829   10.137714 H        1 UNL1     0.0623
     45 H         -8.937628   4.242611   7.563045 H        1 UNL1     0.2921
     46 H         -5.353293   -4.09586   6.399286 H        1 UNL1     0.2922
     47 H         0.52191   0.312866   2.256745 H        1 UNL1     0.2126
     48 H         1.206557   -1.848068   -0.377952 H        1 UNL1     0.2101
     49 H         -2.036185   0.952978   -0.864734 H        1 UNL1     0.2100
     50 H         -2.68662   -3.310473   -1.218729 H        1 UNL1     0.2102
@<TRIPOS>BOND
     1     1     2    1
     2     1     6    1
     3     2     3    1
     4     3     4    1
     5     3    29    1
     6     3    33    1
     7     4     5    1
     8     5     6    1
     9     5     7    1
    10     5    35    1
    11     7     8    1
    12     8     9   ar
    13     8    13   ar
    14     9    10   ar
    15     9    36    1
    16    10    11   ar
    17    10    26    1
    18    11    12   ar
    19    11    14    1
    20    12    13   ar
    21    12    17    1
    22    13    37    1
    23    14    15    1
    24    14    25    2
    25    15    16    1
    26    15    38    1
    27    15    39    1
    28    16    17    1
    29    16    18    1
    30    16    40    1
    31    18    19   ar
    32    18    23   ar
    33    19    20   ar
    34    19    41    1
    35    20    21   ar
    36    20    42    1
    37    21    22   ar
    38    21    24    1
    39    22    23   ar
    40    22    43    1
    41    23    44    1
    42    24    45    1
    43    26    46    1
    44    27    47    1
    45    28    48    1
    46    29    49    1
    47    30    50    1
    48     1    31    1
    49     1    27    1
    50     2    32    1
    51     2    28    1
    52     4    34    1
    53     4    30    1
