@<TRIPOS>MOLECULE
*****
 50 53 0 0 0
SMALL
GASTEIGER

@<TRIPOS>ATOM
     1 C         -0.346976   -1.350145   1.681523 C.3        1 UNL1     0.1889
     2 C         -0.466969   -0.976346   0.179586 C.3        1 UNL1     0.1342
     3 C         -1.904443   -0.951541   -0.362188 C.3        1 UNL1     0.1174
     4 C         -2.798392   -2.016569   0.277881 C.3        1 UNL1     0.1456
     5 C         -2.656297   -2.063233   1.810198 C.3        1 UNL1     0.2326
     6 O         -1.294331   -2.290798   2.165346 O.3        1 UNL1     -0.3076
     7 O         -3.231317   -0.923144   2.474179 O.3        1 UNL1     -0.4605
     8 C         -3.866714   -1.178359   3.676121 C.ar        1 UNL1     0.1310
     9 C         -4.766745   -2.223372   3.91105 C.ar        1 UNL1     0.0226
     10 C         -5.346549   -2.409535   5.171634 C.ar        1 UNL1     0.1343
     11 C         -5.021764   -1.568643   6.23524 C.ar        1 UNL1     0.1007
     12 C         -4.155827   -0.49687   6.002348 C.ar        1 UNL1     0.1389
     13 C         -3.575012   -0.308315   4.734069 C.ar        1 UNL1     0.0229
     14 C         -5.539868   -1.769991   7.608259 C.2        1 UNL1     0.1740
     15 C         -4.915723   -0.91278   8.669947 C.3        1 UNL1     0.0520
     16 C         -4.717406   0.486747   8.104305 C.3        1 UNL1     0.1322
     17 O         -3.851803   0.454631   6.948118 O.3        1 UNL1     -0.4828
     18 C         -6.022889   1.25871   7.898125 C.ar        1 UNL1     -0.0067
     19 C         -5.982871   2.546475   7.325171 C.ar        1 UNL1     -0.0516
     20 C         -7.152899   3.298619   7.166187 C.ar        1 UNL1     -0.0198
     21 C         -8.365448   2.778341   7.581955 C.ar        1 UNL1     0.1169
     22 C         -8.441532   1.499811   8.118996 C.ar        1 UNL1     -0.0198
     23 C         -7.274167   0.740132   8.261129 C.ar        1 UNL1     -0.0516
     24 O         -9.478421   3.554989   7.445911 O.3        1 UNL1     -0.5068
     25 O         -6.366809   -2.630127   7.899495 O.2        1 UNL1     -0.2917
     26 O         -6.21749   -3.447079   5.334573 O.3        1 UNL1     -0.5058
     27 O         -0.242955   -0.223812   2.537876 O.3        1 UNL1     -0.3648
     28 O         0.264894   -1.946882   -0.591868 O.3        1 UNL1     -0.3841
     29 O         -2.457849   0.362864   -0.271575 O.3        1 UNL1     -0.3863
     30 O         -2.452083   -3.311362   -0.259958 O.3        1 UNL1     -0.3829
     31 H         0.611181   -1.867939   1.799441 H        1 UNL1     0.0937
     32 H         0.0   0.0   0.0 H        1 UNL1     0.0671
     33 H         -1.861654   -1.17664   -1.437 H        1 UNL1     0.0649
     34 H         -3.8463   -1.83109   0.017329 H        1 UNL1     0.0683
     35 H         -3.215944   -2.961222   2.100525 H        1 UNL1     0.1085
     36 H         -5.017017   -2.944412   3.140604 H        1 UNL1     0.0691
     37 H         -2.904834   0.534358   4.578324 H        1 UNL1     0.0691
     38 H         -3.957602   -1.368096   8.942378 H        1 UNL1     0.0385
     39 H         -5.559221   -0.91377   9.556337 H        1 UNL1     0.0385
     40 H         -4.154962   1.061572   8.852472 H        1 UNL1     0.0789
     41 H         -5.04231   2.980911   6.999197 H        1 UNL1     0.0623
     42 H         -7.107391   4.295162   6.733933 H        1 UNL1     0.0654
     43 H         -9.38794   1.076748   8.43402 H        1 UNL1     0.0654
     44 H         -7.372025   -0.258941   8.6748 H        1 UNL1     0.0623
     45 H         -9.366635   4.349564   7.992601 H        1 UNL1     0.2921
     46 H         -5.9208   -4.00606   6.07005 H        1 UNL1     0.2922
     47 H         0.490854   0.341786   2.259517 H        1 UNL1     0.2126
     48 H         1.202925   -1.858717   -0.334852 H        1 UNL1     0.2101
     49 H         -2.019123   0.95021   -0.907451 H        1 UNL1     0.2100
     50 H         -2.684763   -3.314606   -1.211568 H        1 UNL1     0.2102
@<TRIPOS>BOND
     1     1     2    1
     2     1     6    1
     3     2     3    1
     4     3     4    1
     5     3    29    1
     6     3    33    1
     7     4     5    1
     8     5     6    1
     9     5     7    1
    10     5    35    1
    11     7     8    1
    12     8     9   ar
    13     8    13   ar
    14     9    10   ar
    15     9    36    1
    16    10    11   ar
    17    10    26    1
    18    11    12   ar
    19    11    14    1
    20    12    13   ar
    21    12    17    1
    22    13    37    1
    23    14    15    1
    24    14    25    2
    25    15    16    1
    26    15    38    1
    27    15    39    1
    28    16    17    1
    29    16    18    1
    30    16    40    1
    31    18    19   ar
    32    18    23   ar
    33    19    20   ar
    34    19    41    1
    35    20    21   ar
    36    20    42    1
    37    21    22   ar
    38    21    24    1
    39    22    23   ar
    40    22    43    1
    41    23    44    1
    42    24    45    1
    43    26    46    1
    44    27    47    1
    45    28    48    1
    46    29    49    1
    47    30    50    1
    48     1    31    1
    49     1    27    1
    50     2    32    1
    51     2    28    1
    52     4    34    1
    53     4    30    1
