@<TRIPOS>MOLECULE
*****
 50 53 0 0 0
SMALL
GASTEIGER

@<TRIPOS>ATOM
     1 C         -0.011586   -1.116472   1.877275 C.3        1 UNL1     0.1889
     2 C         -0.270507   -1.003662   0.350784 C.3        1 UNL1     0.1342
     3 C         -1.712524   -1.313177   -0.079626 C.3        1 UNL1     0.1174
     4 C         -2.363741   -2.407103   0.770291 C.3        1 UNL1     0.1456
     5 C         -2.141732   -2.193202   2.278708 C.3        1 UNL1     0.2326
     6 O         -0.745617   -2.122646   2.559336 O.3        1 UNL1     -0.3076
     7 O         -2.883628   -1.082912   2.815521 O.3        1 UNL1     -0.4605
     8 C         -3.289399   -1.204912   4.132333 C.ar        1 UNL1     0.1310
     9 C         -3.882344   -2.33995   4.69572 C.ar        1 UNL1     0.0226
     10 C         -4.24362   -2.372128   6.047884 C.ar        1 UNL1     0.1343
     11 C         -3.998693   -1.277489   6.875905 C.ar        1 UNL1     0.1007
     12 C         -3.444674   -0.123503   6.315401 C.ar        1 UNL1     0.1389
     13 C         -3.083927   -0.090452   4.955181 C.ar        1 UNL1     0.0229
     14 C         -4.283176   -1.287734   8.329561 C.2        1 UNL1     0.1740
     15 C         -3.753695   -0.116016   9.103045 C.3        1 UNL1     0.0520
     16 C         -3.961198   1.142997   8.272511 C.3        1 UNL1     0.1322
     17 O         -3.260204   1.047701   7.01291 O.3        1 UNL1     -0.4828
     18 C         -5.426904   1.567231   8.152283 C.ar        1 UNL1     -0.0067
     19 C         -5.954816   1.882313   6.883329 C.ar        1 UNL1     -0.0516
     20 C         -7.277554   2.319226   6.743922 C.ar        1 UNL1     -0.0198
     21 C         -8.078514   2.451938   7.864046 C.ar        1 UNL1     0.1169
     22 C         -7.597491   2.117328   9.123209 C.ar        1 UNL1     -0.0198
     23 C         -6.28048   1.662767   9.260739 C.ar        1 UNL1     -0.0516
     24 O         -9.349612   2.916356   7.693677 O.3        1 UNL1     -0.5068
     25 O         -4.842324   -2.219158   8.902524 O.2        1 UNL1     -0.2917
     26 O         -4.819066   -3.509181   6.535283 O.3        1 UNL1     -0.5058
     27 O         -0.074988   0.128319   2.554965 O.3        1 UNL1     -0.3648
     28 O         0.589056   -1.938118   -0.327927 O.3        1 UNL1     -0.3841
     29 O         -2.492876   -0.117306   -0.135098 O.3        1 UNL1     -0.3863
     30 O         -1.811898   -3.688462   0.397091 O.3        1 UNL1     -0.3829
     31 H         1.029919   -1.434962   1.995213 H        1 UNL1     0.0937
     32 H         0.0   0.0   0.0 H        1 UNL1     0.0671
     33 H         -1.681033   -1.689158   -1.111792 H        1 UNL1     0.0649
     34 H         -3.439219   -2.44934   0.565438 H        1 UNL1     0.0683
     35 H         -2.512278   -3.119864   2.734638 H        1 UNL1     0.1085
     36 H         -4.047868   -3.242913   4.11833 H        1 UNL1     0.0691
     37 H         -2.65527   0.820422   4.542803 H        1 UNL1     0.0691
     38 H         -2.689401   -0.295568   9.288962 H        1 UNL1     0.0385
     39 H         -4.265684   -0.063269   10.069929 H        1 UNL1     0.0385
     40 H         -3.462968   1.966105   8.802398 H        1 UNL1     0.0789
     41 H         -5.343662   1.795158   5.989715 H        1 UNL1     0.0623
     42 H         -7.669364   2.570505   5.761397 H        1 UNL1     0.0654
     43 H         -8.220811   2.20318   10.005259 H        1 UNL1     0.0654
     44 H         -5.941064   1.400194   10.258084 H        1 UNL1     0.0623
     45 H         -9.301802   3.808418   7.313339 H        1 UNL1     0.2921
     46 H         -4.298915   -3.839316   7.284861 H        1 UNL1     0.2922
     47 H         0.540277   0.758847   2.155286 H        1 UNL1     0.2126
     48 H         1.506625   -1.662667   -0.138385 H        1 UNL1     0.2101
     49 H         -2.200444   0.433377   -0.878755 H        1 UNL1     0.2100
     50 H         -2.085663   -3.877837   -0.524268 H        1 UNL1     0.2102
@<TRIPOS>BOND
     1     1     2    1
     2     1     6    1
     3     2     3    1
     4     3     4    1
     5     3    29    1
     6     3    33    1
     7     4     5    1
     8     5     6    1
     9     5     7    1
    10     5    35    1
    11     7     8    1
    12     8     9   ar
    13     8    13   ar
    14     9    10   ar
    15     9    36    1
    16    10    11   ar
    17    10    26    1
    18    11    12   ar
    19    11    14    1
    20    12    13   ar
    21    12    17    1
    22    13    37    1
    23    14    15    1
    24    14    25    2
    25    15    16    1
    26    15    38    1
    27    15    39    1
    28    16    17    1
    29    16    18    1
    30    16    40    1
    31    18    19   ar
    32    18    23   ar
    33    19    20   ar
    34    19    41    1
    35    20    21   ar
    36    20    42    1
    37    21    22   ar
    38    21    24    1
    39    22    23   ar
    40    22    43    1
    41    23    44    1
    42    24    45    1
    43    26    46    1
    44    27    47    1
    45    28    48    1
    46    29    49    1
    47    30    50    1
    48     1    31    1
    49     1    27    1
    50     2    32    1
    51     2    28    1
    52     4    34    1
    53     4    30    1
