@<TRIPOS>MOLECULE
*****
 50 53 0 0 0
SMALL
GASTEIGER

@<TRIPOS>ATOM
     1 C         -0.370668   -1.397909   1.636844 C.3        1 UNL1     0.1889
     2 C         -0.487796   -0.971325   0.14881 C.3        1 UNL1     0.1342
     3 C         -1.92632   -0.896743   -0.385561 C.3        1 UNL1     0.1174
     4 C         -2.841285   -1.962759   0.222358 C.3        1 UNL1     0.1456
     5 C         -2.694716   -2.063977   1.751618 C.3        1 UNL1     0.2326
     6 O         -1.33684   -2.333229   2.093006 O.3        1 UNL1     -0.3076
     7 O         -3.241974   -0.934469   2.455919 O.3        1 UNL1     -0.4605
     8 C         -3.764279   -1.196869   3.709662 C.ar        1 UNL1     0.1310
     9 C         -4.608566   -2.265968   4.028263 C.ar        1 UNL1     0.0226
     10 C         -5.072611   -2.457121   5.335177 C.ar        1 UNL1     0.1343
     11 C         -4.684038   -1.59662   6.361038 C.ar        1 UNL1     0.1007
     12 C         -3.874349   -0.501773   6.047197 C.ar        1 UNL1     0.1389
     13 C         -3.410028   -0.308273   4.732513 C.ar        1 UNL1     0.0229
     14 C         -5.076569   -1.800017   7.774793 C.2        1 UNL1     0.1740
     15 C         -4.390534   -0.914282   8.772981 C.3        1 UNL1     0.0520
     16 C         -4.284158   0.484988   8.182486 C.3        1 UNL1     0.1322
     17 O         -3.5199   0.46752   6.95665 O.3        1 UNL1     -0.4828
     18 C         -5.625482   1.215578   8.083417 C.ar        1 UNL1     -0.0067
     19 C         -5.871642   2.327295   8.915104 C.ar        1 UNL1     -0.0516
     20 C         -7.10505   2.988864   8.883554 C.ar        1 UNL1     -0.0198
     21 C         -8.100769   2.54491   8.031922 C.ar        1 UNL1     0.1169
     22 C         -7.876772   1.473673   7.17687 C.ar        1 UNL1     -0.0198
     23 C         -6.637062   0.823407   7.194991 C.ar        1 UNL1     -0.0516
     24 O         -9.301969   3.19062   8.055987 O.3        1 UNL1     -0.5068
     25 O         -5.848913   -2.6816   8.141916 O.2        1 UNL1     -0.2917
     26 O         -5.894306   -3.518585   5.579509 O.3        1 UNL1     -0.5058
     27 O         -0.238665   -0.303534   2.529988 O.3        1 UNL1     -0.3648
     28 O         0.219627   -1.931256   -0.657907 O.3        1 UNL1     -0.3841
     29 O         -2.450188   0.425726   -0.248555 O.3        1 UNL1     -0.3863
     30 O         -2.525645   -3.246056   -0.360059 O.3        1 UNL1     -0.3829
     31 H         0.576222   -1.940309   1.733174 H        1 UNL1     0.0937
     32 H         0.0   0.0   0.0 H        1 UNL1     0.0671
     33 H         -1.892408   -1.0865   -1.467487 H        1 UNL1     0.0649
     34 H         -3.88577   -1.745642   -0.027266 H        1 UNL1     0.0683
     35 H         -3.273033   -2.958691   2.014134 H        1 UNL1     0.1085
     36 H         -4.901558   -3.001606   3.287241 H        1 UNL1     0.0691
     37 H         -2.781693   0.552489   4.513934 H        1 UNL1     0.0691
     38 H         -3.399167   -1.338111   8.965561 H        1 UNL1     0.0385
     39 H         -4.955636   -0.925888   9.711226 H        1 UNL1     0.0385
     40 H         -3.677712   1.08359   8.875608 H        1 UNL1     0.0789
     41 H         -5.109534   2.689564   9.598919 H        1 UNL1     0.0623
     42 H         -7.286836   3.837546   9.538309 H        1 UNL1     0.0654
     43 H         -8.644373   1.127171   6.495228 H        1 UNL1     0.0654
     44 H         -6.493082   -0.003223   6.505935 H        1 UNL1     0.0623
     45 H         -9.334072   3.806681   7.306217 H        1 UNL1     0.2921
     46 H         -5.675891   -3.904901   6.442334 H        1 UNL1     0.2922
     47 H         0.507735   0.253689   2.268743 H        1 UNL1     0.2126
     48 H         1.17179   -1.779295   -0.502902 H        1 UNL1     0.2101
     49 H         -2.9987   0.482316   0.550023 H        1 UNL1     0.2100
     50 H         -2.782744   -3.219743   -1.305004 H        1 UNL1     0.2102
@<TRIPOS>BOND
     1     1     2    1
     2     1     6    1
     3     2     3    1
     4     3     4    1
     5     3    29    1
     6     3    33    1
     7     4     5    1
     8     5     6    1
     9     5     7    1
    10     5    35    1
    11     7     8    1
    12     8     9   ar
    13     8    13   ar
    14     9    10   ar
    15     9    36    1
    16    10    11   ar
    17    10    26    1
    18    11    12   ar
    19    11    14    1
    20    12    13   ar
    21    12    17    1
    22    13    37    1
    23    14    15    1
    24    14    25    2
    25    15    16    1
    26    15    38    1
    27    15    39    1
    28    16    17    1
    29    16    18    1
    30    16    40    1
    31    18    19   ar
    32    18    23   ar
    33    19    20   ar
    34    19    41    1
    35    20    21   ar
    36    20    42    1
    37    21    22   ar
    38    21    24    1
    39    22    23   ar
    40    22    43    1
    41    23    44    1
    42    24    45    1
    43    26    46    1
    44    27    47    1
    45    28    48    1
    46    29    49    1
    47    30    50    1
    48     1    31    1
    49     1    27    1
    50     2    32    1
    51     2    28    1
    52     4    34    1
    53     4    30    1
