@<TRIPOS>MOLECULE
*****
 50 53 0 0 0
SMALL
GASTEIGER

@<TRIPOS>ATOM
     1 C         -0.326516   -1.366727   1.672199 C.3        1 UNL1     0.1889
     2 C         -0.462171   -0.979453   0.175016 C.3        1 UNL1     0.1342
     3 C         -1.90488   -0.954248   -0.35264 C.3        1 UNL1     0.1174
     4 C         -2.789287   -2.028   0.286107 C.3        1 UNL1     0.1456
     5 C         -2.632256   -2.088363   1.816487 C.3        1 UNL1     0.2326
     6 O         -1.266222   -2.314838   2.156381 O.3        1 UNL1     -0.3076
     7 O         -3.204383   -0.956305   2.496513 O.3        1 UNL1     -0.4605
     8 C         -3.718435   -1.20254   3.756928 C.ar        1 UNL1     0.1310
     9 C         -4.540049   -2.28156   4.10039 C.ar        1 UNL1     0.0226
     10 C         -4.997186   -2.454265   5.412298 C.ar        1 UNL1     0.1343
     11 C         -4.623942   -1.564418   6.418629 C.ar        1 UNL1     0.1007
     12 C         -3.837433   -0.460263   6.079471 C.ar        1 UNL1     0.1389
     13 C         -3.380085   -0.285373   4.759745 C.ar        1 UNL1     0.0229
     14 C         -5.009093   -1.745634   7.837422 C.2        1 UNL1     0.1740
     15 C         -4.339025   -0.825107   8.81476 C.3        1 UNL1     0.0520
     16 C         -4.262502   0.56316   8.194423 C.3        1 UNL1     0.1322
     17 O         -3.500782   0.535159   6.967204 O.3        1 UNL1     -0.4828
     18 C         -5.618652   1.264063   8.083446 C.ar        1 UNL1     -0.0067
     19 C         -5.984623   1.875652   6.866795 C.ar        1 UNL1     -0.0516
     20 C         -7.196729   2.565661   6.74576 C.ar        1 UNL1     -0.0198
     21 C         -8.046273   2.657307   7.833742 C.ar        1 UNL1     0.1169
     22 C         -7.728975   2.037047   9.035173 C.ar        1 UNL1     -0.0198
     23 C         -6.525411   1.331301   9.150995 C.ar        1 UNL1     -0.0516
     24 O         -9.200522   3.369555   7.689473 O.3        1 UNL1     -0.5068
     25 O         -5.762492   -2.634725   8.225225 O.2        1 UNL1     -0.2917
     26 O         -5.796533   -3.526773   5.681287 O.3        1 UNL1     -0.5058
     27 O         -0.217737   -0.248026   2.537914 O.3        1 UNL1     -0.3648
     28 O         0.265225   -1.940472   -0.612412 O.3        1 UNL1     -0.3841
     29 O         -2.461475   0.357486   -0.244522 O.3        1 UNL1     -0.3863
     30 O         -2.44416   -3.316653   -0.26702 O.3        1 UNL1     -0.3829
     31 H         0.634342   -1.882517   1.776081 H        1 UNL1     0.0937
     32 H         0.0   0.0   0.0 H        1 UNL1     0.0671
     33 H         -1.871774   -1.169269   -1.429854 H        1 UNL1     0.0649
     34 H         -3.840235   -1.843478   0.037388 H        1 UNL1     0.0683
     35 H         -3.186275   -2.990784   2.103852 H        1 UNL1     0.1085
     36 H         -4.819642   -3.038596   3.375929 H        1 UNL1     0.0691
     37 H         -2.76991   0.583139   4.521278 H        1 UNL1     0.0691
     38 H         -3.3388   -1.224507   9.01365 H        1 UNL1     0.0385
     39 H         -4.90168   -0.828237   9.754541 H        1 UNL1     0.0385
     40 H         -3.666835   1.188572   8.87307 H        1 UNL1     0.0789
     41 H         -5.330953   1.825807   6.000838 H        1 UNL1     0.0623
     42 H         -7.462189   3.043171   5.805799 H        1 UNL1     0.0654
     43 H         -8.393926   2.089776   9.888971 H        1 UNL1     0.0654
     44 H         -6.314492   0.850059   10.101134 H        1 UNL1     0.0623
     45 H         -8.969244   4.292623   7.49667 H        1 UNL1     0.2921
     46 H         -5.397348   -4.058656   6.387801 H        1 UNL1     0.2922
     47 H         0.511586   0.322465   2.257758 H        1 UNL1     0.2126
     48 H         1.205415   -1.851682   -0.363633 H        1 UNL1     0.2101
     49 H         -2.0305   0.952166   -0.878881 H        1 UNL1     0.2100
     50 H         -2.686009   -3.31185   -1.216335 H        1 UNL1     0.2102
@<TRIPOS>BOND
     1     1     2    1
     2     1     6    1
     3     2     3    1
     4     3     4    1
     5     3    29    1
     6     3    33    1
     7     4     5    1
     8     5     6    1
     9     5     7    1
    10     5    35    1
    11     7     8    1
    12     8     9   ar
    13     8    13   ar
    14     9    10   ar
    15     9    36    1
    16    10    11   ar
    17    10    26    1
    18    11    12   ar
    19    11    14    1
    20    12    13   ar
    21    12    17    1
    22    13    37    1
    23    14    15    1
    24    14    25    2
    25    15    16    1
    26    15    38    1
    27    15    39    1
    28    16    17    1
    29    16    18    1
    30    16    40    1
    31    18    19   ar
    32    18    23   ar
    33    19    20   ar
    34    19    41    1
    35    20    21   ar
    36    20    42    1
    37    21    22   ar
    38    21    24    1
    39    22    23   ar
    40    22    43    1
    41    23    44    1
    42    24    45    1
    43    26    46    1
    44    27    47    1
    45    28    48    1
    46    29    49    1
    47    30    50    1
    48     1    31    1
    49     1    27    1
    50     2    32    1
    51     2    28    1
    52     4    34    1
    53     4    30    1
