@<TRIPOS>MOLECULE
*****
 50 53 0 0 0
SMALL
GASTEIGER

@<TRIPOS>ATOM
     1 C         -0.336645   -1.332185   1.697868 C.3        1 UNL1     0.1889
     2 C         -0.464441   -0.975087   0.192515 C.3        1 UNL1     0.1342
     3 C         -1.904524   -0.958605   -0.342607 C.3        1 UNL1     0.1174
     4 C         -2.793591   -2.018022   0.313376 C.3        1 UNL1     0.1456
     5 C         -2.644106   -2.047634   1.845414 C.3        1 UNL1     0.2326
     6 O         -1.280075   -2.269038   2.196508 O.3        1 UNL1     -0.3076
     7 O         -3.217895   -0.901281   2.499602 O.3        1 UNL1     -0.4605
     8 C         -3.729951   -1.119213   3.766027 C.ar        1 UNL1     0.1310
     9 C         -4.548827   -2.191701   4.135501 C.ar        1 UNL1     0.0226
     10 C         -5.004068   -2.334801   5.451624 C.ar        1 UNL1     0.1343
     11 C         -4.631586   -1.420977   6.436522 C.ar        1 UNL1     0.1007
     12 C         -3.847864   -0.323336   6.070809 C.ar        1 UNL1     0.1389
     13 C         -3.392425   -0.178232   4.746819 C.ar        1 UNL1     0.0229
     14 C         -5.014698   -1.569945   7.859613 C.2        1 UNL1     0.1740
     15 C         -4.345494   -0.62549   8.814452 C.3        1 UNL1     0.0520
     16 C         -4.272697   0.748123   8.161884 C.3        1 UNL1     0.1322
     17 O         -3.512341   0.693195   6.934728 O.3        1 UNL1     -0.4828
     18 C         -5.630489   1.443352   8.036265 C.ar        1 UNL1     -0.0067
     19 C         -6.005482   2.012635   6.801959 C.ar        1 UNL1     -0.0516
     20 C         -7.219287   2.696789   6.665681 C.ar        1 UNL1     -0.0198
     21 C         -8.061578   2.824615   7.755651 C.ar        1 UNL1     0.1169
     22 C         -7.735348   2.246093   8.975375 C.ar        1 UNL1     -0.0198
     23 C         -6.530099   1.546024   9.107038 C.ar        1 UNL1     -0.0516
     24 O         -9.217714   3.530264   7.595001 O.3        1 UNL1     -0.5068
     25 O         -5.76572   -2.451379   8.268912 O.2        1 UNL1     -0.2917
     26 O         -5.800779   -3.402465   5.746466 O.3        1 UNL1     -0.5058
     27 O         -0.23046   -0.196353   2.541312 O.3        1 UNL1     -0.3648
     28 O         0.265387   -1.952818   -0.571749 O.3        1 UNL1     -0.3841
     29 O         -2.459732   0.3558   -0.26376 O.3        1 UNL1     -0.3863
     30 O         -2.447645   -3.318064   -0.211887 O.3        1 UNL1     -0.3829
     31 H         0.622945   -1.847069   1.816865 H        1 UNL1     0.0937
     32 H         0.0   0.0   0.0 H        1 UNL1     0.0671
     33 H         -1.866481   -1.195412   -1.415078 H        1 UNL1     0.0649
     34 H         -3.843045   -1.837145   0.055829 H        1 UNL1     0.0683
     35 H         -3.200829   -2.943308   2.148247 H        1 UNL1     0.1085
     36 H         -4.827619   -2.965989   3.429192 H        1 UNL1     0.0691
     37 H         -2.78441   0.685797   4.487466 H        1 UNL1     0.0691
     38 H         -3.344176   -1.018013   9.021373 H        1 UNL1     0.0385
     39 H         -4.90705   -0.607949   9.754732 H        1 UNL1     0.0385
     40 H         -3.677599   1.390433   8.825071 H        1 UNL1     0.0789
     41 H         -5.357616   1.933955   5.933783 H        1 UNL1     0.0623
     42 H         -7.491725   3.14163   5.711791 H        1 UNL1     0.0654
     43 H         -8.394581   2.327227   9.831376 H        1 UNL1     0.0654
     44 H         -6.312128   1.09774   10.071597 H        1 UNL1     0.0623
     45 H         -8.989394   4.440144   7.344591 H        1 UNL1     0.2921
     46 H         -5.399623   -3.916906   6.464684 H        1 UNL1     0.2922
     47 H         0.512187   0.358208   2.26419 H        1 UNL1     0.2126
     48 H         1.200818   -1.877678   -0.301462 H        1 UNL1     0.2101
     49 H         -2.019084   0.939015   -0.902104 H        1 UNL1     0.2100
     50 H         -2.684858   -3.332133   -1.162279 H        1 UNL1     0.2102
@<TRIPOS>BOND
     1     1     2    1
     2     1     6    1
     3     2     3    1
     4     3     4    1
     5     3    29    1
     6     3    33    1
     7     4     5    1
     8     5     6    1
     9     5     7    1
    10     5    35    1
    11     7     8    1
    12     8     9   ar
    13     8    13   ar
    14     9    10   ar
    15     9    36    1
    16    10    11   ar
    17    10    26    1
    18    11    12   ar
    19    11    14    1
    20    12    13   ar
    21    12    17    1
    22    13    37    1
    23    14    15    1
    24    14    25    2
    25    15    16    1
    26    15    38    1
    27    15    39    1
    28    16    17    1
    29    16    18    1
    30    16    40    1
    31    18    19   ar
    32    18    23   ar
    33    19    20   ar
    34    19    41    1
    35    20    21   ar
    36    20    42    1
    37    21    22   ar
    38    21    24    1
    39    22    23   ar
    40    22    43    1
    41    23    44    1
    42    24    45    1
    43    26    46    1
    44    27    47    1
    45    28    48    1
    46    29    49    1
    47    30    50    1
    48     1    31    1
    49     1    27    1
    50     2    32    1
    51     2    28    1
    52     4    34    1
    53     4    30    1
