@<TRIPOS>MOLECULE
*****
 50 53 0 0 0
SMALL
GASTEIGER

@<TRIPOS>ATOM
     1 C         -0.404354   -1.386601   1.638487 C.3        1 UNL1     0.1889
     2 C         -0.499275   -0.965714   0.147251 C.3        1 UNL1     0.1342
     3 C         -1.930441   -0.879235   -0.40479 C.3        1 UNL1     0.1174
     4 C         -2.86331   -1.93326   0.196795 C.3        1 UNL1     0.1456
     5 C         -2.736182   -2.028906   1.728152 C.3        1 UNL1     0.2326
     6 O         -1.385284   -2.310125   2.087123 O.3        1 UNL1     -0.3076
     7 O         -3.280515   -0.890766   2.420727 O.3        1 UNL1     -0.4605
     8 C         -3.827274   -1.143464   3.666009 C.ar        1 UNL1     0.1310
     9 C         -4.917909   -1.983017   3.916943 C.ar        1 UNL1     0.0226
     10 C         -5.388502   -2.18845   5.219341 C.ar        1 UNL1     0.1343
     11 C         -4.764268   -1.577357   6.305958 C.ar        1 UNL1     0.1007
     12 C         -3.700059   -0.704592   6.06404 C.ar        1 UNL1     0.1389
     13 C         -3.228741   -0.496128   4.754142 C.ar        1 UNL1     0.0229
     14 C         -5.166926   -1.824945   7.709782 C.2        1 UNL1     0.1740
     15 C         -4.249833   -1.264359   8.756793 C.3        1 UNL1     0.0520
     16 C         -3.788707   0.114512   8.305091 C.3        1 UNL1     0.1322
     17 O         -3.082319   0.032522   7.047568 O.3        1 UNL1     -0.4828
     18 C         -4.890114   1.176567   8.345917 C.ar        1 UNL1     -0.0067
     19 C         -4.555023   2.530171   8.136907 C.ar        1 UNL1     -0.0516
     20 C         -5.530069   3.531787   8.214455 C.ar        1 UNL1     -0.0198
     21 C         -6.839414   3.194273   8.506907 C.ar        1 UNL1     0.1169
     22 C         -7.206511   1.866694   8.684707 C.ar        1 UNL1     -0.0198
     23 C         -6.235115   0.86306   8.588981 C.ar        1 UNL1     -0.0516
     24 O         -7.75428   4.200478   8.611645 O.3        1 UNL1     -0.5068
     25 O         -6.137477   -2.508799   8.024199 O.2        1 UNL1     -0.2917
     26 O         -6.456891   -3.018436   5.396125 O.3        1 UNL1     -0.5058
     27 O         -0.272135   -0.289505   2.528253 O.3        1 UNL1     -0.3648
     28 O         0.208138   -1.936355   -0.646555 O.3        1 UNL1     -0.3841
     29 O         -2.442623   0.449012   -0.280043 O.3        1 UNL1     -0.3863
     30 O         -2.553577   -3.222307   -0.376016 O.3        1 UNL1     -0.3829
     31 H         0.535817   -1.937977   1.748677 H        1 UNL1     0.0937
     32 H         0.0   0.0   0.0 H        1 UNL1     0.0671
     33 H         -1.885415   -1.074292   -1.485366 H        1 UNL1     0.0649
     34 H         -3.902483   -1.706878   -0.066399 H        1 UNL1     0.0683
     35 H         -3.326567   -2.916587   1.987664 H        1 UNL1     0.1085
     36 H         -5.410926   -2.530602   3.1212 H        1 UNL1     0.0691
     37 H         -2.399417   0.189098   4.592337 H        1 UNL1     0.0691
     38 H         -3.402491   -1.951032   8.856878 H        1 UNL1     0.0385
     39 H         -4.777978   -1.230745   9.715809 H        1 UNL1     0.0385
     40 H         -3.030859   0.454015   9.024066 H        1 UNL1     0.0789
     41 H         -3.53263   2.821892   7.914957 H        1 UNL1     0.0623
     42 H         -5.256941   4.573177   8.063062 H        1 UNL1     0.0654
     43 H         -8.231797   1.589835   8.899294 H        1 UNL1     0.0654
     44 H         -6.559255   -0.164453   8.72313 H        1 UNL1     0.0623
     45 H         -8.231876   4.269671   7.76913 H        1 UNL1     0.2921
     46 H         -6.286223   -3.610271   6.145802 H        1 UNL1     0.2922
     47 H         0.455495   0.283084   2.247974 H        1 UNL1     0.2126
     48 H         1.159843   -1.793195   -0.480739 H        1 UNL1     0.2101
     49 H         -3.000111   0.514745   0.511588 H        1 UNL1     0.2100
     50 H         -2.799006   -3.197773   -1.324106 H        1 UNL1     0.2102
@<TRIPOS>BOND
     1     1     2    1
     2     1     6    1
     3     2     3    1
     4     3     4    1
     5     3    29    1
     6     3    33    1
     7     4     5    1
     8     5     6    1
     9     5     7    1
    10     5    35    1
    11     7     8    1
    12     8     9   ar
    13     8    13   ar
    14     9    10   ar
    15     9    36    1
    16    10    11   ar
    17    10    26    1
    18    11    12   ar
    19    11    14    1
    20    12    13   ar
    21    12    17    1
    22    13    37    1
    23    14    15    1
    24    14    25    2
    25    15    16    1
    26    15    38    1
    27    15    39    1
    28    16    17    1
    29    16    18    1
    30    16    40    1
    31    18    19   ar
    32    18    23   ar
    33    19    20   ar
    34    19    41    1
    35    20    21   ar
    36    20    42    1
    37    21    22   ar
    38    21    24    1
    39    22    23   ar
    40    22    43    1
    41    23    44    1
    42    24    45    1
    43    26    46    1
    44    27    47    1
    45    28    48    1
    46    29    49    1
    47    30    50    1
    48     1    31    1
    49     1    27    1
    50     2    32    1
    51     2    28    1
    52     4    34    1
    53     4    30    1
