@<TRIPOS>MOLECULE
*****
 50 53 0 0 0
SMALL
GASTEIGER

@<TRIPOS>ATOM
     1 C         -0.336043   -1.330744   1.699117 C.3        1 UNL1     0.1889
     2 C         -0.464444   -0.974886   0.193522 C.3        1 UNL1     0.1342
     3 C         -1.904751   -0.958724   -0.341005 C.3        1 UNL1     0.1174
     4 C         -2.793632   -2.017518   0.316233 C.3        1 UNL1     0.1456
     5 C         -2.643503   -2.045871   1.848232 C.3        1 UNL1     0.2326
     6 O         -1.279343   -2.2671   2.198934 O.3        1 UNL1     -0.3076
     7 O         -3.216917   -0.898924   2.501709 O.3        1 UNL1     -0.4605
     8 C         -3.728456   -1.115759   3.768531 C.ar        1 UNL1     0.1310
     9 C         -4.547269   -2.187868   4.139242 C.ar        1 UNL1     0.0226
     10 C         -5.001966   -2.329835   5.455676 C.ar        1 UNL1     0.1343
     11 C         -4.62899   -1.415225   6.439657 C.ar        1 UNL1     0.1007
     12 C         -3.845327   -0.317956   6.072701 C.ar        1 UNL1     0.1389
     13 C         -3.390436   -0.173992   4.748397 C.ar        1 UNL1     0.0229
     14 C         -5.011514   -1.562977   7.863033 C.2        1 UNL1     0.1740
     15 C         -4.341824   -0.617786   8.816804 C.3        1 UNL1     0.0520
     16 C         -4.269184   0.755278   8.163063 C.3        1 UNL1     0.1322
     17 O         -3.509351   0.699264   6.935632 O.3        1 UNL1     -0.4828
     18 C         -5.62697   1.45052   8.037439 C.ar        1 UNL1     -0.0067
     19 C         -6.002435   2.018809   6.802819 C.ar        1 UNL1     -0.0516
     20 C         -7.216239   2.702955   6.666485 C.ar        1 UNL1     -0.0198
     21 C         -8.058058   2.831759   7.756704 C.ar        1 UNL1     0.1169
     22 C         -7.731363   2.254223   8.97677 C.ar        1 UNL1     -0.0198
     23 C         -6.526119   1.554159   9.108506 C.ar        1 UNL1     -0.0516
     24 O         -9.214201   3.537375   7.595955 O.3        1 UNL1     -0.5068
     25 O         -5.762439   -2.444005   8.273382 O.2        1 UNL1     -0.2917
     26 O         -5.798644   -3.397184   5.751742 O.3        1 UNL1     -0.5058
     27 O         -0.229404   -0.19422   2.541571 O.3        1 UNL1     -0.3648
     28 O         0.264977   -1.953316   -0.570237 O.3        1 UNL1     -0.3841
     29 O         -2.459813   0.355793   -0.263017 O.3        1 UNL1     -0.3863
     30 O         -2.44802   -3.318027   -0.208095 O.3        1 UNL1     -0.3829
     31 H         0.623553   -1.845612   1.818137 H        1 UNL1     0.0937
     32 H         0.0   0.0   0.0 H        1 UNL1     0.0671
     33 H         -1.867181   -1.196427   -1.413295 H        1 UNL1     0.0649
     34 H         -3.843179   -1.836765   0.05898 H        1 UNL1     0.0683
     35 H         -3.200175   -2.941244   2.152045 H        1 UNL1     0.1085
     36 H         -4.826426   -2.96272   3.433695 H        1 UNL1     0.0691
     37 H         -2.782455   0.689769   4.48807 H        1 UNL1     0.0691
     38 H         -3.340453   -1.010223   9.023628 H        1 UNL1     0.0385
     39 H         -4.902982   -0.599415   9.757305 H        1 UNL1     0.0385
     40 H         -3.673752   1.398087   8.825465 H        1 UNL1     0.0789
     41 H         -5.354942   1.939352   5.934435 H        1 UNL1     0.0623
     42 H         -7.489041   3.147026   5.712341 H        1 UNL1     0.0654
     43 H         -8.390227   2.336126   9.832982 H        1 UNL1     0.0654
     44 H         -6.307779   1.106659   10.073346 H        1 UNL1     0.0623
     45 H         -8.985908   4.447027   7.344692 H        1 UNL1     0.2921
     46 H         -5.39654   -3.911839   6.469275 H        1 UNL1     0.2922
     47 H         0.514864   0.358627   2.265374 H        1 UNL1     0.2126
     48 H         1.198708   -1.88582   -0.292169 H        1 UNL1     0.2101
     49 H         -2.019384   0.938439   -0.902032 H        1 UNL1     0.2100
     50 H         -2.680413   -3.330946   -1.159693 H        1 UNL1     0.2102
@<TRIPOS>BOND
     1     1     2    1
     2     1     6    1
     3     2     3    1
     4     3     4    1
     5     3    29    1
     6     3    33    1
     7     4     5    1
     8     5     6    1
     9     5     7    1
    10     5    35    1
    11     7     8    1
    12     8     9   ar
    13     8    13   ar
    14     9    10   ar
    15     9    36    1
    16    10    11   ar
    17    10    26    1
    18    11    12   ar
    19    11    14    1
    20    12    13   ar
    21    12    17    1
    22    13    37    1
    23    14    15    1
    24    14    25    2
    25    15    16    1
    26    15    38    1
    27    15    39    1
    28    16    17    1
    29    16    18    1
    30    16    40    1
    31    18    19   ar
    32    18    23   ar
    33    19    20   ar
    34    19    41    1
    35    20    21   ar
    36    20    42    1
    37    21    22   ar
    38    21    24    1
    39    22    23   ar
    40    22    43    1
    41    23    44    1
    42    24    45    1
    43    26    46    1
    44    27    47    1
    45    28    48    1
    46    29    49    1
    47    30    50    1
    48     1    31    1
    49     1    27    1
    50     2    32    1
    51     2    28    1
    52     4    34    1
    53     4    30    1
