@<TRIPOS>MOLECULE
*****
 50 53 0 0 0
SMALL
GASTEIGER

@<TRIPOS>ATOM
     1 C         -0.330576   -1.327694   1.702572 C.3        1 UNL1     0.1889
     2 C         -0.46121   -0.975882   0.196218 C.3        1 UNL1     0.1342
     3 C         -1.901953   -0.965573   -0.337278 C.3        1 UNL1     0.1174
     4 C         -2.786992   -2.025586   0.323173 C.3        1 UNL1     0.1456
     5 C         -2.635649   -2.049762   1.855125 C.3        1 UNL1     0.2326
     6 O         -1.270537   -2.265823   2.205347 O.3        1 UNL1     -0.3076
     7 O         -3.212214   -0.903063   2.506257 O.3        1 UNL1     -0.4605
     8 C         -3.721709   -1.118349   3.774167 C.ar        1 UNL1     0.1310
     9 C         -4.536548   -2.192232   4.148485 C.ar        1 UNL1     0.0226
     10 C         -4.989399   -2.332334   5.465755 C.ar        1 UNL1     0.1343
     11 C         -4.61846   -1.413959   6.446994 C.ar        1 UNL1     0.1007
     12 C         -3.838852   -0.315024   6.076403 C.ar        1 UNL1     0.1389
     13 C         -3.38582   -0.172944   4.751258 C.ar        1 UNL1     0.0229
     14 C         -4.999008   -1.55933   7.871144 C.2        1 UNL1     0.1740
     15 C         -4.331491   -0.60946   8.821785 C.3        1 UNL1     0.0520
     16 C         -4.264121   0.762154   8.164448 C.3        1 UNL1     0.1322
     17 O         -3.505382   0.705526   6.936369 O.3        1 UNL1     -0.4828
     18 C         -5.624353   1.452532   8.038463 C.ar        1 UNL1     -0.0067
     19 C         -6.004224   2.013832   6.801995 C.ar        1 UNL1     -0.0516
     20 C         -7.220464   2.693515   6.665045 C.ar        1 UNL1     -0.0198
     21 C         -8.06037   2.824797   7.756444 C.ar        1 UNL1     0.1169
     22 C         -7.72927   2.254029   8.978506 C.ar        1 UNL1     -0.0198
     23 C         -6.52155   1.558379   9.11095 C.ar        1 UNL1     -0.0516
     24 O         -9.219068   3.526016   7.594856 O.3        1 UNL1     -0.5068
     25 O         -5.746556   -2.441804   8.284539 O.2        1 UNL1     -0.2917
     26 O         -5.782196   -3.401575   5.765392 O.3        1 UNL1     -0.5058
     27 O         -0.226921   -0.188807   2.542202 O.3        1 UNL1     -0.3648
     28 O         0.270746   -1.953839   -0.565719 O.3        1 UNL1     -0.3841
     29 O         -2.46112   0.347365   -0.26205 O.3        1 UNL1     -0.3863
     30 O         -2.437646   -3.326256   -0.198271 O.3        1 UNL1     -0.3829
     31 H         0.630733   -1.839231   1.822122 H        1 UNL1     0.0937
     32 H         0.0   0.0   0.0 H        1 UNL1     0.0671
     33 H         -1.864418   -1.205744   -1.409019 H        1 UNL1     0.0649
     34 H         -3.837295   -1.84878   0.066263 H        1 UNL1     0.0683
     35 H         -3.189258   -2.946158   2.16151 H        1 UNL1     0.1085
     36 H         -4.813846   -2.969822   3.445221 H        1 UNL1     0.0691
     37 H         -2.781002   0.69217   4.488079 H        1 UNL1     0.0691
     38 H         -3.328599   -0.998018   9.028566 H        1 UNL1     0.0385
     39 H         -4.891729   -0.590547   9.762823 H        1 UNL1     0.0385
     40 H         -3.670153   1.408649   8.824574 H        1 UNL1     0.0789
     41 H         -5.358328   1.932328   5.932613 H        1 UNL1     0.0623
     42 H         -7.496686   3.13224   5.709413 H        1 UNL1     0.0654
     43 H         -8.386572   2.337885   9.835729 H        1 UNL1     0.0654
     44 H         -6.299756   1.116106   10.077411 H        1 UNL1     0.0623
     45 H         -9.96484   2.934044   7.784882 H        1 UNL1     0.2921
     46 H         -5.37698   -3.913766   6.482938 H        1 UNL1     0.2922
     47 H         0.515494   0.365639   2.264226 H        1 UNL1     0.2126
     48 H         1.203345   -1.887349   -0.283634 H        1 UNL1     0.2101
     49 H         -2.022832   0.929923   -0.902614 H        1 UNL1     0.2100
     50 H         -2.670695   -3.34221   -1.149663 H        1 UNL1     0.2102
@<TRIPOS>BOND
     1     1     2    1
     2     1     6    1
     3     2     3    1
     4     3     4    1
     5     3    29    1
     6     3    33    1
     7     4     5    1
     8     5     6    1
     9     5     7    1
    10     5    35    1
    11     7     8    1
    12     8     9   ar
    13     8    13   ar
    14     9    10   ar
    15     9    36    1
    16    10    11   ar
    17    10    26    1
    18    11    12   ar
    19    11    14    1
    20    12    13   ar
    21    12    17    1
    22    13    37    1
    23    14    15    1
    24    14    25    2
    25    15    16    1
    26    15    38    1
    27    15    39    1
    28    16    17    1
    29    16    18    1
    30    16    40    1
    31    18    19   ar
    32    18    23   ar
    33    19    20   ar
    34    19    41    1
    35    20    21   ar
    36    20    42    1
    37    21    22   ar
    38    21    24    1
    39    22    23   ar
    40    22    43    1
    41    23    44    1
    42    24    45    1
    43    26    46    1
    44    27    47    1
    45    28    48    1
    46    29    49    1
    47    30    50    1
    48     1    31    1
    49     1    27    1
    50     2    32    1
    51     2    28    1
    52     4    34    1
    53     4    30    1
