@<TRIPOS>MOLECULE
*****
 50 53 0 0 0
SMALL
GASTEIGER

@<TRIPOS>ATOM
     1 C         -0.332016   -1.328866   1.701378 C.3        1 UNL1     0.1889
     2 C         -0.462309   -0.975536   0.195349 C.3        1 UNL1     0.1342
     3 C         -1.90306   -0.963108   -0.33808 C.3        1 UNL1     0.1174
     4 C         -2.789275   -2.022717   0.321442 C.3        1 UNL1     0.1456
     5 C         -2.637901   -2.048458   1.853365 C.3        1 UNL1     0.2326
     6 O         -1.273021   -2.266385   2.203336 O.3        1 UNL1     -0.3076
     7 O         -3.21314   -0.901697   2.505562 O.3        1 UNL1     -0.4605
     8 C         -3.723254   -1.117664   3.773107 C.ar        1 UNL1     0.1310
     9 C         -4.539596   -2.190878   4.146067 C.ar        1 UNL1     0.0226
     10 C         -4.992983   -2.331787   5.463067 C.ar        1 UNL1     0.1343
     11 C         -4.621105   -1.41494   6.44538 C.ar        1 UNL1     0.1007
     12 C         -3.839961   -0.316633   6.076164 C.ar        1 UNL1     0.1389
     13 C         -3.386391   -0.173738   4.751292 C.ar        1 UNL1     0.0229
     14 C         -5.002223   -1.561327   7.869274 C.2        1 UNL1     0.1740
     15 C         -4.333718   -0.613341   8.821101 C.3        1 UNL1     0.0520
     16 C         -4.26438   0.758881   8.16524 C.3        1 UNL1     0.1322
     17 O         -3.505387   0.702566   6.937303 O.3        1 UNL1     -0.4828
     18 C         -5.623674   1.451171   8.039628 C.ar        1 UNL1     -0.0067
     19 C         -6.001252   2.016837   6.804447 C.ar        1 UNL1     -0.0516
     20 C         -7.216551   2.698306   6.66803 C.ar        1 UNL1     -0.0198
     21 C         -8.057784   2.82704   7.758709 C.ar        1 UNL1     0.1169
     22 C         -7.728969   2.252006   8.979388 C.ar        1 UNL1     -0.0198
     23 C         -6.522201   1.554594   9.111238 C.ar        1 UNL1     -0.0516
     24 O         -9.215485   3.53006   7.5978 O.3        1 UNL1     -0.5068
     25 O         -5.751035   -2.443261   8.281532 O.2        1 UNL1     -0.2917
     26 O         -5.787257   -3.400307   5.761357 O.3        1 UNL1     -0.5058
     27 O         -0.227037   -0.19086   2.542038 O.3        1 UNL1     -0.3648
     28 O         0.268508   -1.953629   -0.567506 O.3        1 UNL1     -0.3841
     29 O         -2.460735   0.350394   -0.261636 O.3        1 UNL1     -0.3863
     30 O         -2.441424   -3.323308   -0.201199 O.3        1 UNL1     -0.3829
     31 H         0.628717   -1.841601   1.820424 H        1 UNL1     0.0937
     32 H         0.0   0.0   0.0 H        1 UNL1     0.0671
     33 H         -1.865839   -1.202347   -1.41004 H        1 UNL1     0.0649
     34 H         -3.839387   -1.844486   0.064734 H        1 UNL1     0.0683
     35 H         -3.192514   -2.944503   2.158957 H        1 UNL1     0.1085
     36 H         -4.817723   -2.967356   3.441903 H        1 UNL1     0.0691
     37 H         -2.780371   0.690864   4.489193 H        1 UNL1     0.0691
     38 H         -3.331391   -1.00343   9.027735 H        1 UNL1     0.0385
     39 H         -4.894183   -0.594696   9.76201 H        1 UNL1     0.0385
     40 H         -3.669743   1.403897   8.82621 H        1 UNL1     0.0789
     41 H         -5.354273   1.937389   5.93568 H        1 UNL1     0.0623
     42 H         -7.490996   3.140386   5.713432 H        1 UNL1     0.0654
     43 H         -8.387335   2.333858   9.835988 H        1 UNL1     0.0654
     44 H         -6.302203   1.108992   10.076579 H        1 UNL1     0.0623
     45 H         -8.989239   4.439795   7.344992 H        1 UNL1     0.2921
     46 H         -5.38355   -3.913063   6.47935 H        1 UNL1     0.2922
     47 H         0.514197   0.364496   2.262731 H        1 UNL1     0.2126
     48 H         1.202316   -1.883816   -0.290267 H        1 UNL1     0.2101
     49 H         -2.021989   0.932972   -0.901869 H        1 UNL1     0.2100
     50 H         -2.674528   -3.338132   -1.152595 H        1 UNL1     0.2102
@<TRIPOS>BOND
     1     1     2    1
     2     1     6    1
     3     2     3    1
     4     3     4    1
     5     3    29    1
     6     3    33    1
     7     4     5    1
     8     5     6    1
     9     5     7    1
    10     5    35    1
    11     7     8    1
    12     8     9   ar
    13     8    13   ar
    14     9    10   ar
    15     9    36    1
    16    10    11   ar
    17    10    26    1
    18    11    12   ar
    19    11    14    1
    20    12    13   ar
    21    12    17    1
    22    13    37    1
    23    14    15    1
    24    14    25    2
    25    15    16    1
    26    15    38    1
    27    15    39    1
    28    16    17    1
    29    16    18    1
    30    16    40    1
    31    18    19   ar
    32    18    23   ar
    33    19    20   ar
    34    19    41    1
    35    20    21   ar
    36    20    42    1
    37    21    22   ar
    38    21    24    1
    39    22    23   ar
    40    22    43    1
    41    23    44    1
    42    24    45    1
    43    26    46    1
    44    27    47    1
    45    28    48    1
    46    29    49    1
    47    30    50    1
    48     1    31    1
    49     1    27    1
    50     2    32    1
    51     2    28    1
    52     4    34    1
    53     4    30    1
