@<TRIPOS>MOLECULE
*****
 50 53 0 0 0
SMALL
GASTEIGER

@<TRIPOS>ATOM
     1 C         -0.319918   -1.335525   1.698479 C.3        1 UNL1     0.1889
     2 C         -0.459153   -0.977209   0.19443 C.3        1 UNL1     0.1342
     3 C         -1.902807   -0.966021   -0.331121 C.3        1 UNL1     0.1174
     4 C         -2.783155   -2.029841   0.329478 C.3        1 UNL1     0.1456
     5 C         -2.623399   -2.060616   1.860457 C.3        1 UNL1     0.2326
     6 O         -1.256173   -2.276823   2.202244 O.3        1 UNL1     -0.3076
     7 O         -3.197533   -0.917389   2.519791 O.3        1 UNL1     -0.4605
     8 C         -3.699859   -1.138785   3.789508 C.ar        1 UNL1     0.1310
     9 C         -4.511562   -2.215141   4.163536 C.ar        1 UNL1     0.0226
     10 C         -4.95705   -2.361512   5.482634 C.ar        1 UNL1     0.1343
     11 C         -4.581658   -1.447093   6.465873 C.ar        1 UNL1     0.1007
     12 C         -3.80519   -0.345738   6.095874 C.ar        1 UNL1     0.1389
     13 C         -3.359567   -0.197354   4.768911 C.ar        1 UNL1     0.0229
     14 C         -4.954253   -1.599131   7.891429 C.2        1 UNL1     0.1740
     15 C         -4.282488   -0.65278   8.842586 C.3        1 UNL1     0.0520
     16 C         -4.22009   0.721788   8.190951 C.3        1 UNL1     0.1322
     17 O         -3.468033   0.671351   6.958499 O.3        1 UNL1     -0.4828
     18 C         -5.581681   1.411323   8.075463 C.ar        1 UNL1     -0.0067
     19 C         -5.968831   1.977782   6.843614 C.ar        1 UNL1     -0.0516
     20 C         -7.18648   2.65682   6.716331 C.ar        1 UNL1     -0.0198
     21 C         -8.020573   2.78233   7.812854 C.ar        1 UNL1     0.1169
     22 C         -7.682262   2.206417   9.030519 C.ar        1 UNL1     -0.0198
     23 C         -6.473142   1.511424   9.153272 C.ar        1 UNL1     -0.0516
     24 O         -9.180838   3.483074   7.660717 O.3        1 UNL1     -0.5068
     25 O         -5.698644   -2.484184   8.30501 O.2        1 UNL1     -0.2917
     26 O         -5.747126   -3.432874   5.781884 O.3        1 UNL1     -0.5058
     27 O         -0.212802   -0.200245   2.542548 O.3        1 UNL1     -0.3648
     28 O         0.269594   -1.951047   -0.575812 O.3        1 UNL1     -0.3841
     29 O         -2.462865   0.345999   -0.247038 O.3        1 UNL1     -0.3863
     30 O         -2.435372   -3.327841   -0.199607 O.3        1 UNL1     -0.3829
     31 H         0.642542   -1.846601   1.810505 H        1 UNL1     0.0937
     32 H         0.0   0.0   0.0 H        1 UNL1     0.0671
     33 H         -1.870904   -1.201427   -1.404101 H        1 UNL1     0.0649
     34 H         -3.835027   -1.852978   0.079104 H        1 UNL1     0.0683
     35 H         -3.174425   -2.95892   2.165907 H        1 UNL1     0.1085
     36 H         -4.791932   -2.989905   3.458375 H        1 UNL1     0.0691
     37 H         -2.757063   0.669531   4.506246 H        1 UNL1     0.0691
     38 H         -3.278091   -1.041219   9.042157 H        1 UNL1     0.0385
     39 H         -4.837581   -0.638589   9.786751 H        1 UNL1     0.0385
     40 H         -3.62316   1.365973   8.850663 H        1 UNL1     0.0789
     41 H         -5.327587   1.900852   5.970379 H        1 UNL1     0.0623
     42 H         -7.468333   3.09955   5.764196 H        1 UNL1     0.0654
     43 H         -8.33498   2.285742   9.891668 H        1 UNL1     0.0654
     44 H         -6.245653   1.06504   10.116514 H        1 UNL1     0.0623
     45 H         -8.958463   4.391945   7.401448 H        1 UNL1     0.2921
     46 H         -5.337602   -3.947665   6.49511 H        1 UNL1     0.2922
     47 H         0.527525   0.356179   2.262963 H        1 UNL1     0.2126
     48 H         0.864249   -2.411986   0.046806 H        1 UNL1     0.2101
     49 H         -2.044178   0.926185   -0.902691 H        1 UNL1     0.2100
     50 H         -2.673613   -3.339838   -1.14977 H        1 UNL1     0.2102
@<TRIPOS>BOND
     1     1     2    1
     2     1     6    1
     3     2     3    1
     4     3     4    1
     5     3    29    1
     6     3    33    1
     7     4     5    1
     8     5     6    1
     9     5     7    1
    10     5    35    1
    11     7     8    1
    12     8     9   ar
    13     8    13   ar
    14     9    10   ar
    15     9    36    1
    16    10    11   ar
    17    10    26    1
    18    11    12   ar
    19    11    14    1
    20    12    13   ar
    21    12    17    1
    22    13    37    1
    23    14    15    1
    24    14    25    2
    25    15    16    1
    26    15    38    1
    27    15    39    1
    28    16    17    1
    29    16    18    1
    30    16    40    1
    31    18    19   ar
    32    18    23   ar
    33    19    20   ar
    34    19    41    1
    35    20    21   ar
    36    20    42    1
    37    21    22   ar
    38    21    24    1
    39    22    23   ar
    40    22    43    1
    41    23    44    1
    42    24    45    1
    43    26    46    1
    44    27    47    1
    45    28    48    1
    46    29    49    1
    47    30    50    1
    48     1    31    1
    49     1    27    1
    50     2    32    1
    51     2    28    1
    52     4    34    1
    53     4    30    1
