@<TRIPOS>MOLECULE
*****
 50 53 0 0 0
SMALL
GASTEIGER

@<TRIPOS>ATOM
     1 C         0.092515   2.127546   -0.485584 C.3        1 UNL1     0.1889
     2 C         0.560749   0.886583   0.321081 C.3        1 UNL1     0.1342
     3 C         0.440666   1.030345   1.846 C.3        1 UNL1     0.1174
     4 C         0.711601   2.45676   2.330819 C.3        1 UNL1     0.1456
     5 C         -0.029125   3.5154   1.493579 C.3        1 UNL1     0.2326
     6 O         0.332548   3.389209   0.120212 O.3        1 UNL1     -0.3076
     7 O         -1.45261   3.520765   1.705669 O.3        1 UNL1     -0.4605
     8 C         -2.226328   3.105366   0.63687 C.ar        1 UNL1     0.1310
     9 C         -3.427549   2.394758   0.733841 C.ar        1 UNL1     0.0226
     10 C         -4.148962   2.033246   -0.410176 C.ar        1 UNL1     0.1343
     11 C         -3.698333   2.394676   -1.679091 C.ar        1 UNL1     0.1007
     12 C         -2.479278   3.068612   -1.790888 C.ar        1 UNL1     0.1389
     13 C         -1.752755   3.429686   -0.640575 C.ar        1 UNL1     0.0229
     14 C         -4.462815   2.111949   -2.915936 C.2        1 UNL1     0.1740
     15 C         -3.943811   2.764504   -4.163475 C.3        1 UNL1     0.0520
     16 C         -2.423118   2.69232   -4.148079 C.3        1 UNL1     0.1322
     17 O         -1.888863   3.378023   -2.994193 O.3        1 UNL1     -0.4828
     18 C         -1.871112   1.28037   -4.358821 C.ar        1 UNL1     -0.0067
     19 C         -1.851247   0.731221   -5.657379 C.ar        1 UNL1     -0.0516
     20 C         -1.397168   -0.574537   -5.878222 C.ar        1 UNL1     -0.0198
     21 C         -0.968223   -1.342189   -4.81026 C.ar        1 UNL1     0.1169
     22 C         -0.94446   -0.817715   -3.524491 C.ar        1 UNL1     -0.0198
     23 C         -1.38115   0.49438   -3.305943 C.ar        1 UNL1     -0.0516
     24 O         -0.56866   -2.622442   -5.05866 O.3        1 UNL1     -0.5068
     25 O         -5.501509   1.456755   -2.933882 O.2        1 UNL1     -0.2917
     26 O         -5.312595   1.339757   -0.247034 O.3        1 UNL1     -0.5058
     27 O         -1.238742   2.021245   -0.964374 O.3        1 UNL1     -0.3648
     28 O         1.948002   0.644711   0.021526 O.3        1 UNL1     -0.3841
     29 O         -0.811179   0.517655   2.306614 O.3        1 UNL1     -0.3863
     30 O         2.130021   2.719336   2.261333 O.3        1 UNL1     -0.3829
     31 H         0.70405   2.159162   -1.393936 H        1 UNL1     0.0937
     32 H         0.0   0.0   0.0 H        1 UNL1     0.0671
     33 H         1.205492   0.388148   2.304634 H        1 UNL1     0.0649
     34 H         0.418229   2.556634   3.381704 H        1 UNL1     0.0683
     35 H         0.384712   4.468465   1.846117 H        1 UNL1     0.1085
     36 H         -3.859342   2.133009   1.693614 H        1 UNL1     0.0691
     37 H         -0.805895   3.953073   -0.754656 H        1 UNL1     0.0691
     38 H         -4.289919   3.803607   -4.162273 H        1 UNL1     0.0385
     39 H         -4.373362   2.261918   -5.036786 H        1 UNL1     0.0385
     40 H         -2.062632   3.27627   -5.005734 H        1 UNL1     0.0789
     41 H         -2.191318   1.310204   -6.511066 H        1 UNL1     0.0623
     42 H         -1.397903   -0.990807   -6.882578 H        1 UNL1     0.0654
     43 H         -0.596421   -1.404968   -2.683116 H        1 UNL1     0.0654
     44 H         -1.338943   0.875422   -2.290132 H        1 UNL1     0.0623
     45 H         -0.752266   -3.159354   -4.270795 H        1 UNL1     0.2921
     46 H         -6.016997   1.764054   -0.762012 H        1 UNL1     0.2922
     47 H         -1.292746   2.338353   -1.876726 H        1 UNL1     0.2126
     48 H         2.462549   1.004991   0.769304 H        1 UNL1     0.2101
     49 H         -1.531335   0.858354   1.752453 H        1 UNL1     0.2100
     50 H         2.503683   2.596585   3.158563 H        1 UNL1     0.2102
@<TRIPOS>BOND
     1     1     2    1
     2     1     6    1
     3     2     3    1
     4     3     4    1
     5     3    29    1
     6     3    33    1
     7     4     5    1
     8     5     6    1
     9     5     7    1
    10     5    35    1
    11     7     8    1
    12     8     9   ar
    13     8    13   ar
    14     9    10   ar
    15     9    36    1
    16    10    11   ar
    17    10    26    1
    18    11    12   ar
    19    11    14    1
    20    12    13   ar
    21    12    17    1
    22    13    37    1
    23    14    15    1
    24    14    25    2
    25    15    16    1
    26    15    38    1
    27    15    39    1
    28    16    17    1
    29    16    18    1
    30    16    40    1
    31    18    19   ar
    32    18    23   ar
    33    19    20   ar
    34    19    41    1
    35    20    21   ar
    36    20    42    1
    37    21    22   ar
    38    21    24    1
    39    22    23   ar
    40    22    43    1
    41    23    44    1
    42    24    45    1
    43    26    46    1
    44    27    47    1
    45    28    48    1
    46    29    49    1
    47    30    50    1
    48     1    31    1
    49     1    27    1
    50     2    32    1
    51     2    28    1
    52     4    34    1
    53     4    30    1
