@<TRIPOS>MOLECULE
*****
 50 53 0 0 0
SMALL
GASTEIGER

@<TRIPOS>ATOM
     1 C         0.817026   1.996316   -0.343504 C.3        1 UNL1     0.1889
     2 C         0.772041   0.469759   -0.621965 C.3        1 UNL1     0.1342
     3 C         2.10537   -0.26155   -0.403138 C.3        1 UNL1     0.1174
     4 C         3.319084   0.591688   -0.77997 C.3        1 UNL1     0.1456
     5 C         3.233818   2.021348   -0.215021 C.3        1 UNL1     0.2326
     6 O         2.035816   2.650738   -0.66394 O.3        1 UNL1     -0.3076
     7 O         3.405684   2.084798   1.212479 O.3        1 UNL1     -0.4605
     8 C         4.095095   3.184113   1.691797 C.ar        1 UNL1     0.1310
     9 C         4.84792   4.070688   0.914275 C.ar        1 UNL1     0.0226
     10 C         5.497628   5.167876   1.492167 C.ar        1 UNL1     0.1343
     11 C         5.390558   5.418832   2.859427 C.ar        1 UNL1     0.1007
     12 C         4.675445   4.517525   3.65255 C.ar        1 UNL1     0.1389
     13 C         4.024448   3.412906   3.071646 C.ar        1 UNL1     0.0229
     14 C         5.98665   6.609278   3.508785 C.2        1 UNL1     0.1740
     15 C         5.586793   6.83846   4.936769 C.3        1 UNL1     0.0520
     16 C         5.550007   5.493156   5.648642 C.3        1 UNL1     0.1322
     17 O         4.595243   4.607796   5.022836 O.3        1 UNL1     -0.4828
     18 C         6.932999   4.877394   5.874238 C.ar        1 UNL1     -0.0067
     19 C         7.626548   4.314026   4.783449 C.ar        1 UNL1     -0.0516
     20 C         8.872072   3.700693   4.963604 C.ar        1 UNL1     -0.0198
     21 C         9.430068   3.637889   6.227932 C.ar        1 UNL1     0.1169
     22 C         8.786794   4.213147   7.316102 C.ar        1 UNL1     -0.0198
     23 C         7.549824   4.842806   7.133097 C.ar        1 UNL1     -0.0516
     24 O         10.626808   2.999365   6.371107 O.3        1 UNL1     -0.5068
     25 O         6.699389   7.416134   2.917623 O.2        1 UNL1     -0.2917
     26 O         6.216847   5.993977   0.678616 O.3        1 UNL1     -0.5058
     27 O         0.358373   2.348429   0.952042 O.3        1 UNL1     -0.3648
     28 O         0.393158   0.267753   -1.996137 O.3        1 UNL1     -0.3841
     29 O         2.185949   -0.782417   0.925145 O.3        1 UNL1     -0.3863
     30 O         3.417297   0.666372   -2.218881 O.3        1 UNL1     -0.3829
     31 H         0.091776   2.459469   -1.021428 H        1 UNL1     0.0937
     32 H         0.0   -0.0   0.0 H        1 UNL1     0.0671
     33 H         2.117835   -1.140635   -1.062512 H        1 UNL1     0.0649
     34 H         4.237612   0.114877   -0.420306 H        1 UNL1     0.0683
     35 H         4.069109   2.545939   -0.695617 H        1 UNL1     0.1085
     36 H         4.923786   3.962104   -0.162096 H        1 UNL1     0.0691
     37 H         3.474995   2.72539   3.711112 H        1 UNL1     0.0691
     38 H         4.598323   7.31009   4.932291 H        1 UNL1     0.0385
     39 H         6.295165   7.533207   5.400787 H        1 UNL1     0.0385
     40 H         5.143083   5.669682   6.653516 H        1 UNL1     0.0789
     41 H         7.205647   4.342313   3.782604 H        1 UNL1     0.0623
     42 H         9.391503   3.259409   4.116567 H        1 UNL1     0.0654
     43 H         9.221794   4.18291   8.307954 H        1 UNL1     0.0654
     44 H         7.080371   5.290881   8.003549 H        1 UNL1     0.0623
     45 H         10.47354   2.161465   6.837101 H        1 UNL1     0.2921
     46 H         6.521777   6.762642   1.186144 H        1 UNL1     0.2922
     47 H         -0.532499   2.000643   1.097824 H        1 UNL1     0.2126
     48 H         1.0437   -0.352935   -2.377285 H        1 UNL1     0.2101
     49 H         2.983052   -1.328156   1.017829 H        1 UNL1     0.2100
     50 H         4.150167   0.0811   -2.501849 H        1 UNL1     0.2102
@<TRIPOS>BOND
     1     1     2    1
     2     1     6    1
     3     2     3    1
     4     3     4    1
     5     3    29    1
     6     3    33    1
     7     4     5    1
     8     5     6    1
     9     5     7    1
    10     5    35    1
    11     7     8    1
    12     8     9   ar
    13     8    13   ar
    14     9    10   ar
    15     9    36    1
    16    10    11   ar
    17    10    26    1
    18    11    12   ar
    19    11    14    1
    20    12    13   ar
    21    12    17    1
    22    13    37    1
    23    14    15    1
    24    14    25    2
    25    15    16    1
    26    15    38    1
    27    15    39    1
    28    16    17    1
    29    16    18    1
    30    16    40    1
    31    18    19   ar
    32    18    23   ar
    33    19    20   ar
    34    19    41    1
    35    20    21   ar
    36    20    42    1
    37    21    22   ar
    38    21    24    1
    39    22    23   ar
    40    22    43    1
    41    23    44    1
    42    24    45    1
    43    26    46    1
    44    27    47    1
    45    28    48    1
    46    29    49    1
    47    30    50    1
    48     1    31    1
    49     1    27    1
    50     2    32    1
    51     2    28    1
    52     4    34    1
    53     4    30    1
