@<TRIPOS>MOLECULE
*****
 50 53 0 0 0
SMALL
GASTEIGER

@<TRIPOS>ATOM
     1 C         -0.330332   -1.327244   1.702971 C.3        1 UNL1     0.1889
     2 C         -0.461591   -0.97562   0.196627 C.3        1 UNL1     0.1342
     3 C         -1.902612   -0.964683   -0.336105 C.3        1 UNL1     0.1174
     4 C         -2.787827   -2.024145   0.324994 C.3        1 UNL1     0.1456
     5 C         -2.635682   -2.04814   1.856869 C.3        1 UNL1     0.2326
     6 O         -1.270492   -2.264821   2.206402 O.3        1 UNL1     -0.3076
     7 O         -3.211331   -0.901044   2.508115 O.3        1 UNL1     -0.4605
     8 C         -3.720258   -1.115865   3.776332 C.ar        1 UNL1     0.1310
     9 C         -4.535432   -2.189279   4.151263 C.ar        1 UNL1     0.0226
     10 C         -4.987653   -2.328936   5.468797 C.ar        1 UNL1     0.1343
     11 C         -4.615735   -1.41058   6.449685 C.ar        1 UNL1     0.1007
     12 C         -3.835778   -0.312096   6.078495 C.ar        1 UNL1     0.1389
     13 C         -3.38338   -0.170464   4.753086 C.ar        1 UNL1     0.0229
     14 C         -4.995599   -1.555524   7.874061 C.2        1 UNL1     0.1740
     15 C         -4.327104   -0.605827   8.824188 C.3        1 UNL1     0.0520
     16 C         -4.259402   0.765644   8.166584 C.3        1 UNL1     0.1322
     17 O         -3.501343   0.708432   6.938112 O.3        1 UNL1     -0.4828
     18 C         -5.619357   1.456677   8.041207 C.ar        1 UNL1     -0.0067
     19 C         -5.999556   2.018061   6.804878 C.ar        1 UNL1     -0.0516
     20 C         -7.21553   2.698328   6.668466 C.ar        1 UNL1     -0.0198
     21 C         -8.054838   2.830112   7.760264 C.ar        1 UNL1     0.1169
     22 C         -7.723421   2.259282   8.982211 C.ar        1 UNL1     -0.0198
     23 C         -6.515978   1.563052   9.114123 C.ar        1 UNL1     -0.0516
     24 O         -9.213272   3.531885   7.599183 O.3        1 UNL1     -0.5068
     25 O         -5.743366   -2.437557   8.288001 O.2        1 UNL1     -0.2917
     26 O         -5.780823   -3.397731   5.769035 O.3        1 UNL1     -0.5058
     27 O         -0.225663   -0.188268   2.542354 O.3        1 UNL1     -0.3648
     28 O         0.269474   -1.954068   -0.565535 O.3        1 UNL1     -0.3841
     29 O         -2.461086   0.348545   -0.2608 O.3        1 UNL1     -0.3863
     30 O         -2.439405   -3.325076   -0.196418 O.3        1 UNL1     -0.3829
     31 H         0.630787   -1.83924   1.822095 H        1 UNL1     0.0937
     32 H         0.0   0.0   0.0 H        1 UNL1     0.0671
     33 H         -1.865766   -1.205053   -1.407825 H        1 UNL1     0.0649
     34 H         -3.838179   -1.846859   0.068612 H        1 UNL1     0.0683
     35 H         -3.189574   -2.944208   2.163699 H        1 UNL1     0.1085
     36 H         -4.813491   -2.966849   3.448277 H        1 UNL1     0.0691
     37 H         -2.778271   0.694306   4.48944 H        1 UNL1     0.0691
     38 H         -3.324296   -0.994849   9.030501 H        1 UNL1     0.0385
     39 H         -4.886833   -0.586477   9.765521 H        1 UNL1     0.0385
     40 H         -3.664761   1.411953   8.826286 H        1 UNL1     0.0789
     41 H         -5.354125   1.93617   5.935187 H        1 UNL1     0.0623
     42 H         -7.492004   3.13711   5.712932 H        1 UNL1     0.0654
     43 H         -8.380264   2.34353   9.839748 H        1 UNL1     0.0654
     44 H         -6.293928   1.12075   10.080512 H        1 UNL1     0.0623
     45 H         -8.988218   4.439415   7.337539 H        1 UNL1     0.2921
     46 H         -5.376127   -3.909276   6.487335 H        1 UNL1     0.2922
     47 H         0.516879   0.365762   2.26389 H        1 UNL1     0.2126
     48 H         1.202434   -1.887262   -0.284725 H        1 UNL1     0.2101
     49 H         -2.022908   0.930757   -0.901755 H        1 UNL1     0.2100
     50 H         -2.672968   -3.341073   -1.147683 H        1 UNL1     0.2102
@<TRIPOS>BOND
     1     1     2    1
     2     1     6    1
     3     2     3    1
     4     3     4    1
     5     3    29    1
     6     3    33    1
     7     4     5    1
     8     5     6    1
     9     5     7    1
    10     5    35    1
    11     7     8    1
    12     8     9   ar
    13     8    13   ar
    14     9    10   ar
    15     9    36    1
    16    10    11   ar
    17    10    26    1
    18    11    12   ar
    19    11    14    1
    20    12    13   ar
    21    12    17    1
    22    13    37    1
    23    14    15    1
    24    14    25    2
    25    15    16    1
    26    15    38    1
    27    15    39    1
    28    16    17    1
    29    16    18    1
    30    16    40    1
    31    18    19   ar
    32    18    23   ar
    33    19    20   ar
    34    19    41    1
    35    20    21   ar
    36    20    42    1
    37    21    22   ar
    38    21    24    1
    39    22    23   ar
    40    22    43    1
    41    23    44    1
    42    24    45    1
    43    26    46    1
    44    27    47    1
    45    28    48    1
    46    29    49    1
    47    30    50    1
    48     1    31    1
    49     1    27    1
    50     2    32    1
    51     2    28    1
    52     4    34    1
    53     4    30    1
