@<TRIPOS>MOLECULE
*****
 50 53 0 0 0
SMALL
GASTEIGER

@<TRIPOS>ATOM
     1 C         0.69805   -1.440761   1.485846 C.3        1 UNL1     0.1889
     2 C         -0.427052   -0.774573   0.649019 C.3        1 UNL1     0.1342
     3 C         -1.565751   -0.161506   1.478462 C.3        1 UNL1     0.1174
     4 C         -1.870047   -0.958708   2.749285 C.3        1 UNL1     0.1456
     5 C         -0.596814   -1.336605   3.528025 C.3        1 UNL1     0.2326
     6 O         0.285832   -2.075956   2.687095 O.3        1 UNL1     -0.3076
     7 O         0.03827   -0.214501   4.167456 O.3        1 UNL1     -0.4605
     8 C         -0.081975   1.001049   3.51822 C.ar        1 UNL1     0.1310
     9 C         -1.121439   1.358039   2.652557 C.ar        1 UNL1     0.0226
     10 C         -1.163446   2.623457   2.055182 C.ar        1 UNL1     0.1343
     11 C         -0.178636   3.571928   2.327931 C.ar        1 UNL1     0.1007
     12 C         0.886279   3.212934   3.158511 C.ar        1 UNL1     0.1389
     13 C         0.929688   1.93959   3.75696 C.ar        1 UNL1     0.0229
     14 C         -0.218577   4.951699   1.790539 C.2        1 UNL1     0.1740
     15 C         0.79378   5.900545   2.36183 C.3        1 UNL1     0.0520
     16 C         2.113903   5.158769   2.519946 C.3        1 UNL1     0.1322
     17 O         1.964438   4.029755   3.408797 O.3        1 UNL1     -0.4828
     18 C         2.800939   4.83361   1.191421 C.ar        1 UNL1     -0.0067
     19 C         3.334368   5.881317   0.412976 C.ar        1 UNL1     -0.0516
     20 C         3.926945   5.623593   -0.828955 C.ar        1 UNL1     -0.0198
     21 C         3.985553   4.326285   -1.305804 C.ar        1 UNL1     0.1169
     22 C         3.498993   3.269522   -0.547285 C.ar        1 UNL1     -0.0198
     23 C         2.92295   3.524837   0.702932 C.ar        1 UNL1     -0.0516
     24 O         4.535925   4.118268   -2.536341 O.3        1 UNL1     -0.5068
     25 O         -1.064687   5.34127   0.990028 O.2        1 UNL1     -0.2917
     26 O         -2.2038   2.908538   1.219731 O.3        1 UNL1     -0.5058
     27 O         1.819795   -0.598254   1.697166 O.3        1 UNL1     -0.3648
     28 O         -1.010885   -1.77366   -0.207527 O.3        1 UNL1     -0.3841
     29 O         -1.315657   1.221127   1.739064 O.3        1 UNL1     -0.3863
     30 O         -2.572228   -2.169193   2.392415 O.3        1 UNL1     -0.3829
     31 H         1.090574   -2.265886   0.881551 H        1 UNL1     0.0937
     32 H         0.0   0.0   0.0 H        1 UNL1     0.0671
     33 H         -2.47686   -0.182506   0.864329 H        1 UNL1     0.0649
     34 H         -2.535474   -0.382647   3.401788 H        1 UNL1     0.0683
     35 H         -0.954938   -2.028154   4.300932 H        1 UNL1     0.1085
     36 H         -1.946265   0.68549   2.444086 H        1 UNL1     0.0691
     37 H         1.770136   1.684301   4.398808 H        1 UNL1     0.0691
     38 H         0.4156   6.244604   3.330402 H        1 UNL1     0.0385
     39 H         0.883777   6.769768   1.701428 H        1 UNL1     0.0385
     40 H         2.803096   5.833073   3.046108 H        1 UNL1     0.0789
     41 H         3.292522   6.909332   0.760948 H        1 UNL1     0.0623
     42 H         4.324002   6.441418   -1.425209 H        1 UNL1     0.0654
     43 H         3.553325   2.248059   -0.904458 H        1 UNL1     0.0654
     44 H         2.562586   2.67418   1.273342 H        1 UNL1     0.0623
     45 H         4.137383   4.746044   -3.160663 H        1 UNL1     0.2921
     46 H         -2.23526   3.864501   1.056766 H        1 UNL1     0.2922
     47 H         2.13671   -0.244965   0.854189 H        1 UNL1     0.2126
     48 H         -0.355084   -1.960578   -0.906611 H        1 UNL1     0.2101
     49 H         -0.935154   1.32629   2.625604 H        1 UNL1     0.2100
     50 H         -3.454836   -1.916207   2.050781 H        1 UNL1     0.2102
@<TRIPOS>BOND
     1     1     2    1
     2     1     6    1
     3     2     3    1
     4     3     4    1
     5     3    29    1
     6     3    33    1
     7     4     5    1
     8     5     6    1
     9     5     7    1
    10     5    35    1
    11     7     8    1
    12     8     9   ar
    13     8    13   ar
    14     9    10   ar
    15     9    36    1
    16    10    11   ar
    17    10    26    1
    18    11    12   ar
    19    11    14    1
    20    12    13   ar
    21    12    17    1
    22    13    37    1
    23    14    15    1
    24    14    25    2
    25    15    16    1
    26    15    38    1
    27    15    39    1
    28    16    17    1
    29    16    18    1
    30    16    40    1
    31    18    19   ar
    32    18    23   ar
    33    19    20   ar
    34    19    41    1
    35    20    21   ar
    36    20    42    1
    37    21    22   ar
    38    21    24    1
    39    22    23   ar
    40    22    43    1
    41    23    44    1
    42    24    45    1
    43    26    46    1
    44    27    47    1
    45    28    48    1
    46    29    49    1
    47    30    50    1
    48     1    31    1
    49     1    27    1
    50     2    32    1
    51     2    28    1
    52     4    34    1
    53     4    30    1
