@<TRIPOS>MOLECULE
*****
 50 53 0 0 0
SMALL
GASTEIGER

@<TRIPOS>ATOM
     1 C         0.850512   -1.179898   -1.629502 C.3        1 UNL1     0.1889
     2 C         -0.356976   -0.579886   -0.860152 C.3        1 UNL1     0.1342
     3 C         -1.386069   -1.612783   -0.375842 C.3        1 UNL1     0.1174
     4 C         -1.549532   -2.786836   -1.344344 C.3        1 UNL1     0.1456
     5 C         -0.198732   -3.352711   -1.819201 C.3        1 UNL1     0.2326
     6 O         0.573442   -2.320575   -2.428553 O.3        1 UNL1     -0.3076
     7 O         0.517155   -4.064284   -0.793292 O.3        1 UNL1     -0.4605
     8 C         1.302617   -5.118971   -1.222494 C.ar        1 UNL1     0.1310
     9 C         0.910317   -6.101357   -2.138091 C.ar        1 UNL1     0.0226
     10 C         1.786793   -7.122611   -2.52375 C.ar        1 UNL1     0.1343
     11 C         3.086146   -7.172599   -2.020734 C.ar        1 UNL1     0.1007
     12 C         3.475902   -6.220923   -1.074591 C.ar        1 UNL1     0.1389
     13 C         2.593549   -5.195698   -0.684977 C.ar        1 UNL1     0.0229
     14 C         4.080497   -8.179984   -2.457307 C.2        1 UNL1     0.1740
     15 C         5.486418   -7.951471   -1.98538 C.3        1 UNL1     0.0520
     16 C         5.437949   -7.472611   -0.540977 C.3        1 UNL1     0.1322
     17 O         4.693287   -6.23925   -0.434354 O.3        1 UNL1     -0.4828
     18 C         5.015675   -8.556596   0.453702 C.ar        1 UNL1     -0.0067
     19 C         5.960321   -9.060468   1.371291 C.ar        1 UNL1     -0.0516
     20 C         5.620236   -10.085148   2.262547 C.ar        1 UNL1     -0.0198
     21 C         4.343836   -10.618228   2.241194 C.ar        1 UNL1     0.1169
     22 C         3.381952   -10.120037   1.372044 C.ar        1 UNL1     -0.0198
     23 C         3.71644   -9.082726   0.493317 C.ar        1 UNL1     -0.0516
     24 O         4.060217   -11.640927   3.09796 O.3        1 UNL1     -0.5068
     25 O         3.815419   -9.105033   -3.220525 O.2        1 UNL1     -0.2917
     26 O         1.342166   -8.050581   -3.41972 O.3        1 UNL1     -0.5058
     27 O         1.997537   -1.375176   -0.817722 O.3        1 UNL1     -0.3648
     28 O         -1.0458   0.334019   -1.733655 O.3        1 UNL1     -0.3841
     29 O         -1.093716   -2.032624   0.958474 O.3        1 UNL1     -0.3863
     30 O         -2.300317   -2.348616   -2.49759 O.3        1 UNL1     -0.3829
     31 H         1.162338   -0.425277   -2.359838 H        1 UNL1     0.0937
     32 H         0.0   0.0   0.0 H        1 UNL1     0.0671
     33 H         -2.36217   -1.11134   -0.316674 H        1 UNL1     0.0649
     34 H         -2.129347   -3.585782   -0.869056 H        1 UNL1     0.0683
     35 H         -0.472106   -4.058018   -2.613989 H        1 UNL1     0.1085
     36 H         -0.067247   -6.085641   -2.607392 H        1 UNL1     0.0691
     37 H         2.920811   -4.467598   0.054119 H        1 UNL1     0.0691
     38 H         5.935785   -7.194885   -2.637435 H        1 UNL1     0.0385
     39 H         6.057156   -8.879939   -2.094846 H        1 UNL1     0.0385
     40 H         6.463048   -7.19993   -0.255779 H        1 UNL1     0.0789
     41 H         6.971474   -8.665124   1.401675 H        1 UNL1     0.0623
     42 H         6.360995   -10.473381   2.957215 H        1 UNL1     0.0654
     43 H         2.375086   -10.51993   1.357293 H        1 UNL1     0.0654
     44 H         2.93709   -8.710609   -0.164701 H        1 UNL1     0.0623
     45 H         4.895599   -12.056155   3.367105 H        1 UNL1     0.2921
     46 H         2.060305   -8.280971   -4.030137 H        1 UNL1     0.2922
     47 H         2.215188   -0.560227   -0.344071 H        1 UNL1     0.2126
     48 H         -0.477028   1.123484   -1.817174 H        1 UNL1     0.2101
     49 H         -0.612341   -2.875107   0.941355 H        1 UNL1     0.2100
     50 H         -3.213895   -2.150015   -2.204939 H        1 UNL1     0.2102
@<TRIPOS>BOND
     1     1     2    1
     2     1     6    1
     3     2     3    1
     4     3     4    1
     5     3    29    1
     6     3    33    1
     7     4     5    1
     8     5     6    1
     9     5     7    1
    10     5    35    1
    11     7     8    1
    12     8     9   ar
    13     8    13   ar
    14     9    10   ar
    15     9    36    1
    16    10    11   ar
    17    10    26    1
    18    11    12   ar
    19    11    14    1
    20    12    13   ar
    21    12    17    1
    22    13    37    1
    23    14    15    1
    24    14    25    2
    25    15    16    1
    26    15    38    1
    27    15    39    1
    28    16    17    1
    29    16    18    1
    30    16    40    1
    31    18    19   ar
    32    18    23   ar
    33    19    20   ar
    34    19    41    1
    35    20    21   ar
    36    20    42    1
    37    21    22   ar
    38    21    24    1
    39    22    23   ar
    40    22    43    1
    41    23    44    1
    42    24    45    1
    43    26    46    1
    44    27    47    1
    45    28    48    1
    46    29    49    1
    47    30    50    1
    48     1    31    1
    49     1    27    1
    50     2    32    1
    51     2    28    1
    52     4    34    1
    53     4    30    1
