@<TRIPOS>MOLECULE
*****
 50 53 0 0 0
SMALL
GASTEIGER

@<TRIPOS>ATOM
     1 C         1.799804   -1.157925   -0.436715 C.3        1 UNL1     0.1889
     2 C         0.329639   -0.752588   -0.726987 C.3        1 UNL1     0.1342
     3 C         -0.669208   -1.919965   -0.727605 C.3        1 UNL1     0.1174
     4 C         -0.066763   -3.216249   -1.275168 C.3        1 UNL1     0.1456
     5 C         1.322098   -3.517815   -0.683149 C.3        1 UNL1     0.2326
     6 O         2.204224   -2.425718   -0.932235 O.3        1 UNL1     -0.3076
     7 O         1.282467   -3.908775   0.701373 O.3        1 UNL1     -0.4605
     8 C         1.977057   -5.060074   1.026309 C.ar        1 UNL1     0.1310
     9 C         1.480423   -6.115201   1.799201 C.ar        1 UNL1     0.0226
     10 C         2.257774   -7.250046   2.059502 C.ar        1 UNL1     0.1343
     11 C         3.543295   -7.367864   1.532819 C.ar        1 UNL1     0.1007
     12 C         4.065264   -6.302915   0.793756 C.ar        1 UNL1     0.1389
     13 C         3.284412   -5.160802   0.534377 C.ar        1 UNL1     0.0229
     14 C         4.376634   -8.580145   1.706242 C.2        1 UNL1     0.1740
     15 C         5.634888   -8.625314   0.889965 C.3        1 UNL1     0.0520
     16 C         6.260378   -7.237252   0.891673 C.3        1 UNL1     0.1322
     17 O         5.356081   -6.266609   0.319687 O.3        1 UNL1     -0.4828
     18 C         6.855429   -6.831216   2.242145 C.ar        1 UNL1     -0.0067
     19 C         7.599262   -7.772957   2.982448 C.ar        1 UNL1     -0.0516
     20 C         8.117007   -7.449203   4.242244 C.ar        1 UNL1     -0.0198
     21 C         7.892089   -6.192343   4.774732 C.ar        1 UNL1     0.1169
     22 C         7.19198   -5.232554   4.055364 C.ar        1 UNL1     -0.0198
     23 C         6.689893   -5.550025   2.787619 C.ar        1 UNL1     -0.0516
     24 O         8.379408   -5.925666   6.020447 O.3        1 UNL1     -0.5068
     25 O         4.044045   -9.5352   2.403192 O.2        1 UNL1     -0.2917
     26 O         1.714935   -8.243315   2.821293 O.3        1 UNL1     -0.5058
     27 O         2.177957   -0.980618   0.919143 O.3        1 UNL1     -0.3648
     28 O         0.273843   -0.14037   -2.028825 O.3        1 UNL1     -0.3841
     29 O         -1.256707   -2.085287   0.564543 O.3        1 UNL1     -0.3863
     30 O         0.052986   -3.113613   -2.710722 O.3        1 UNL1     -0.3829
     31 H         2.433004   -0.453847   -0.987543 H        1 UNL1     0.0937
     32 H         -0.0   0.0   0.0 H        1 UNL1     0.0671
     33 H         -1.500496   -1.649678   -1.393658 H        1 UNL1     0.0649
     34 H         -0.738199   -4.057079   -1.068823 H        1 UNL1     0.0683
     35 H         1.685781   -4.363993   -1.279467 H        1 UNL1     0.1085
     36 H         0.468938   -6.108679   2.19032 H        1 UNL1     0.0691
     37 H         3.714404   -4.345004   -0.042749 H        1 UNL1     0.0691
     38 H         5.360618   -8.933676   -0.124538 H        1 UNL1     0.0385
     39 H         6.306806   -9.382754   1.307802 H        1 UNL1     0.0385
     40 H         7.110031   -7.264218   0.196056 H        1 UNL1     0.0789
     41 H         7.781854   -8.769262   2.590419 H        1 UNL1     0.0623
     42 H         8.678807   -8.187972   4.808471 H        1 UNL1     0.0654
     43 H         7.022955   -4.24036   4.456476 H        1 UNL1     0.0654
     44 H         6.156723   -4.772474   2.249113 H        1 UNL1     0.0623
     45 H         8.109618   -5.026794   6.269365 H        1 UNL1     0.2921
     46 H         0.749882   -8.144911   2.841351 H        1 UNL1     0.2922
     47 H         3.141404   -0.93756   0.995142 H        1 UNL1     0.2126
     48 H         -0.603764   -0.353226   -2.400618 H        1 UNL1     0.2101
     49 H         -0.783163   -1.541869   1.214348 H        1 UNL1     0.2100
     50 H         0.930334   -3.466815   -2.966109 H        1 UNL1     0.2102
@<TRIPOS>BOND
     1     1     2    1
     2     1     6    1
     3     2     3    1
     4     3     4    1
     5     3    29    1
     6     3    33    1
     7     4     5    1
     8     5     6    1
     9     5     7    1
    10     5    35    1
    11     7     8    1
    12     8     9   ar
    13     8    13   ar
    14     9    10   ar
    15     9    36    1
    16    10    11   ar
    17    10    26    1
    18    11    12   ar
    19    11    14    1
    20    12    13   ar
    21    12    17    1
    22    13    37    1
    23    14    15    1
    24    14    25    2
    25    15    16    1
    26    15    38    1
    27    15    39    1
    28    16    17    1
    29    16    18    1
    30    16    40    1
    31    18    19   ar
    32    18    23   ar
    33    19    20   ar
    34    19    41    1
    35    20    21   ar
    36    20    42    1
    37    21    22   ar
    38    21    24    1
    39    22    23   ar
    40    22    43    1
    41    23    44    1
    42    24    45    1
    43    26    46    1
    44    27    47    1
    45    28    48    1
    46    29    49    1
    47    30    50    1
    48     1    31    1
    49     1    27    1
    50     2    32    1
    51     2    28    1
    52     4    34    1
    53     4    30    1
