@<TRIPOS>MOLECULE
*****
 50 53 0 0 0
SMALL
GASTEIGER

@<TRIPOS>ATOM
     1 C         -0.32694   -1.332515   1.699506 C.3        1 UNL1     0.1889
     2 C         -0.461289   -0.97618   0.194542 C.3        1 UNL1     0.1342
     3 C         -1.903413   -0.963432   -0.335158 C.3        1 UNL1     0.1174
     4 C         -2.787369   -2.02486   0.324471 C.3        1 UNL1     0.1456
     5 C         -2.632045   -2.053648   1.855944 C.3        1 UNL1     0.2326
     6 O         -1.266155   -2.27156   2.201963 O.3        1 UNL1     -0.3076
     7 O         -3.206213   -0.90853   2.51196 O.3        1 UNL1     -0.4605
     8 C         -3.712954   -1.127357   3.780366 C.ar        1 UNL1     0.1310
     9 C         -4.527767   -2.201766   4.153228 C.ar        1 UNL1     0.0226
     10 C         -4.977693   -2.345607   5.471097 C.ar        1 UNL1     0.1343
     11 C         -4.603777   -1.43057   6.454324 C.ar        1 UNL1     0.1007
     12 C         -3.824166   -0.331094   6.085348 C.ar        1 UNL1     0.1389
     13 C         -3.374077   -0.185251   4.75961 C.ar        1 UNL1     0.0229
     14 C         -4.981157   -1.580068   7.87889 C.2        1 UNL1     0.1740
     15 C         -4.310711   -0.633671   8.830932 C.3        1 UNL1     0.0520
     16 C         -4.243784   0.739925   8.1777 C.3        1 UNL1     0.1322
     17 O         -3.487919   0.686523   6.947706 O.3        1 UNL1     -0.4828
     18 C         -5.603762   1.431743   8.056996 C.ar        1 UNL1     -0.0067
     19 C         -5.985206   1.998911   6.823693 C.ar        1 UNL1     -0.0516
     20 C         -7.201216   2.679992   6.691748 C.ar        1 UNL1     -0.0198
     21 C         -8.039326   2.806844   7.78505 C.ar        1 UNL1     0.1169
     22 C         -7.706682   2.230305   9.00398 C.ar        1 UNL1     -0.0198
     23 C         -6.499209   1.533284   9.131361 C.ar        1 UNL1     -0.0516
     24 O         -9.19782   3.509536   7.628475 O.3        1 UNL1     -0.5068
     25 O         -5.728441   -2.463243   8.291267 O.2        1 UNL1     -0.2917
     26 O         -5.770633   -3.415159   5.769243 O.3        1 UNL1     -0.5058
     27 O         -0.220402   -0.196173   2.542218 O.3        1 UNL1     -0.3648
     28 O         0.268083   -1.952322   -0.572185 O.3        1 UNL1     -0.3841
     29 O         -2.461584   0.349612   -0.254598 O.3        1 UNL1     -0.3863
     30 O         -2.440174   -3.324194   -0.201718 O.3        1 UNL1     -0.3829
     31 H         0.634368   -1.844979   1.815036 H        1 UNL1     0.0937
     32 H         0.0   0.0   0.0 H        1 UNL1     0.0671
     33 H         -1.86882   -1.200462   -1.407697 H        1 UNL1     0.0649
     34 H         -3.838232   -1.846666   0.070826 H        1 UNL1     0.0683
     35 H         -3.185397   -2.950612   2.161128 H        1 UNL1     0.1085
     36 H         -4.807292   -2.976954   3.448196 H        1 UNL1     0.0691
     37 H         -2.769191   0.680208   4.497723 H        1 UNL1     0.0691
     38 H         -3.30765   -1.023645   9.034193 H        1 UNL1     0.0385
     39 H         -4.868765   -0.617247   9.773314 H        1 UNL1     0.0385
     40 H         -3.647792   1.383907   8.838458 H        1 UNL1     0.0789
     41 H         -5.340726   1.920951   5.952936 H        1 UNL1     0.0623
     42 H         -7.478651   3.12324   5.738557 H        1 UNL1     0.0654
     43 H         -8.362585   2.310679   9.862607 H        1 UNL1     0.0654
     44 H         -6.276188   1.086472   10.095449 H        1 UNL1     0.0623
     45 H         -8.972903   4.418234   7.370797 H        1 UNL1     0.2921
     46 H         -5.36481   -3.929164   6.485147 H        1 UNL1     0.2922
     47 H         0.521515   0.358734   2.263835 H        1 UNL1     0.2126
     48 H         1.201632   -1.88649   -0.293107 H        1 UNL1     0.2101
     49 H         -2.024674   0.933774   -0.894643 H        1 UNL1     0.2100
     50 H         -2.675714   -3.3372   -1.152541 H        1 UNL1     0.2102
@<TRIPOS>BOND
     1     1     2    1
     2     1     6    1
     3     2     3    1
     4     3     4    1
     5     3    29    1
     6     3    33    1
     7     4     5    1
     8     5     6    1
     9     5     7    1
    10     5    35    1
    11     7     8    1
    12     8     9   ar
    13     8    13   ar
    14     9    10   ar
    15     9    36    1
    16    10    11   ar
    17    10    26    1
    18    11    12   ar
    19    11    14    1
    20    12    13   ar
    21    12    17    1
    22    13    37    1
    23    14    15    1
    24    14    25    2
    25    15    16    1
    26    15    38    1
    27    15    39    1
    28    16    17    1
    29    16    18    1
    30    16    40    1
    31    18    19   ar
    32    18    23   ar
    33    19    20   ar
    34    19    41    1
    35    20    21   ar
    36    20    42    1
    37    21    22   ar
    38    21    24    1
    39    22    23   ar
    40    22    43    1
    41    23    44    1
    42    24    45    1
    43    26    46    1
    44    27    47    1
    45    28    48    1
    46    29    49    1
    47    30    50    1
    48     1    31    1
    49     1    27    1
    50     2    32    1
    51     2    28    1
    52     4    34    1
    53     4    30    1
