@<TRIPOS>MOLECULE
*****
 50 53 0 0 0
SMALL
GASTEIGER

@<TRIPOS>ATOM
     1 C         -2.164135   -0.243154   -0.167924 C.3        1 UNL1     0.1889
     2 C         -0.770073   0.0622   -0.778897 C.3        1 UNL1     0.1342
     3 C         -0.662525   1.42387   -1.482285 C.3        1 UNL1     0.1174
     4 C         -1.95884   1.832085   -2.18659 C.3        1 UNL1     0.1456
     5 C         -3.201465   1.627162   -1.301009 C.3        1 UNL1     0.2326
     6 O         -3.280677   0.266655   -0.881943 O.3        1 UNL1     -0.3076
     7 O         -3.287947   2.561372   -0.209637 O.3        1 UNL1     -0.4605
     8 C         -4.565417   2.91869   0.182692 C.ar        1 UNL1     0.1310
     9 C         -5.609986   3.268329   -0.679821 C.ar        1 UNL1     0.0226
     10 C         -6.877066   3.599372   -0.185027 C.ar        1 UNL1     0.1343
     11 C         -7.137136   3.565672   1.184305 C.ar        1 UNL1     0.1007
     12 C         -6.090922   3.257901   2.058089 C.ar        1 UNL1     0.1389
     13 C         -4.816264   2.927648   1.560485 C.ar        1 UNL1     0.0229
     14 C         -8.478993   3.824533   1.755762 C.2        1 UNL1     0.1740
     15 C         -8.62985   3.527852   3.218899 C.3        1 UNL1     0.0520
     16 C         -7.369505   3.990602   3.936778 C.3        1 UNL1     0.1322
     17 O         -6.206868   3.300219   3.428137 O.3        1 UNL1     -0.4828
     18 C         -7.223567   5.512642   4.00622 C.ar        1 UNL1     -0.0067
     19 C         -5.982113   6.07343   4.370254 C.ar        1 UNL1     -0.0516
     20 C         -5.827399   7.459734   4.489367 C.ar        1 UNL1     -0.0198
     21 C         -6.905983   8.293679   4.254802 C.ar        1 UNL1     0.1169
     22 C         -8.132275   7.773227   3.86215 C.ar        1 UNL1     -0.0198
     23 C         -8.282334   6.388044   3.725012 C.ar        1 UNL1     -0.0516
     24 O         -6.72754   9.636107   4.417431 O.3        1 UNL1     -0.5068
     25 O         -9.442901   4.181214   1.083345 O.2        1 UNL1     -0.2917
     26 O         -7.852315   3.932398   -1.079213 O.3        1 UNL1     -0.5058
     27 O         -2.250529   0.049377   1.217626 O.3        1 UNL1     -0.3648
     28 O         -0.469141   -0.950262   -1.757195 O.3        1 UNL1     -0.3841
     29 O         -0.183964   2.423937   -0.580632 O.3        1 UNL1     -0.3863
     30 O         -2.111728   1.047616   -3.389471 O.3        1 UNL1     -0.3829
     31 H         -2.298893   -1.328909   -0.223199 H        1 UNL1     0.0937
     32 H         0.0   0.0   0.0 H        1 UNL1     0.0671
     33 H         0.108899   1.33936   -2.260412 H        1 UNL1     0.0649
     34 H         -1.902851   2.882282   -2.493757 H        1 UNL1     0.0683
     35 H         -4.043587   1.800481   -1.982676 H        1 UNL1     0.1085
     36 H         -5.48713   3.259033   -1.75729 H        1 UNL1     0.0691
     37 H         -4.018368   2.692819   2.261707 H        1 UNL1     0.0691
     38 H         -8.770403   2.446859   3.324855 H        1 UNL1     0.0385
     39 H         -9.5284   4.028177   3.595809 H        1 UNL1     0.0385
     40 H         -7.451136   3.658582   4.980626 H        1 UNL1     0.0789
     41 H         -5.122612   5.439731   4.568584 H        1 UNL1     0.0623
     42 H         -4.868185   7.879352   4.782351 H        1 UNL1     0.0654
     43 H         -8.979447   8.418123   3.661353 H        1 UNL1     0.0654
     44 H         -9.251539   6.016694   3.406286 H        1 UNL1     0.0623
     45 H         -6.500702   9.805043   5.346259 H        1 UNL1     0.2921
     46 H         -8.625549   3.362647   -0.941715 H        1 UNL1     0.2922
     47 H         -1.549654   -0.409835   1.701112 H        1 UNL1     0.2126
     48 H         -0.361005   -1.788539   -1.26798 H        1 UNL1     0.2101
     49 H         0.749044   2.259427   -0.370333 H        1 UNL1     0.2100
     50 H         -1.405388   1.312957   -4.014284 H        1 UNL1     0.2102
@<TRIPOS>BOND
     1     1     2    1
     2     1     6    1
     3     2     3    1
     4     3     4    1
     5     3    29    1
     6     3    33    1
     7     4     5    1
     8     5     6    1
     9     5     7    1
    10     5    35    1
    11     7     8    1
    12     8     9   ar
    13     8    13   ar
    14     9    10   ar
    15     9    36    1
    16    10    11   ar
    17    10    26    1
    18    11    12   ar
    19    11    14    1
    20    12    13   ar
    21    12    17    1
    22    13    37    1
    23    14    15    1
    24    14    25    2
    25    15    16    1
    26    15    38    1
    27    15    39    1
    28    16    17    1
    29    16    18    1
    30    16    40    1
    31    18    19   ar
    32    18    23   ar
    33    19    20   ar
    34    19    41    1
    35    20    21   ar
    36    20    42    1
    37    21    22   ar
    38    21    24    1
    39    22    23   ar
    40    22    43    1
    41    23    44    1
    42    24    45    1
    43    26    46    1
    44    27    47    1
    45    28    48    1
    46    29    49    1
    47    30    50    1
    48     1    31    1
    49     1    27    1
    50     2    32    1
    51     2    28    1
    52     4    34    1
    53     4    30    1
