@<TRIPOS>MOLECULE
*****
 50 53 0 0 0
SMALL
GASTEIGER

@<TRIPOS>ATOM
     1 C         -0.336204   -1.331643   1.698381 C.3        1 UNL1     0.1889
     2 C         -0.464717   -0.974856   0.193015 C.3        1 UNL1     0.1342
     3 C         -1.905099   -0.957932   -0.341289 C.3        1 UNL1     0.1174
     4 C         -2.794211   -2.016838   0.315457 C.3        1 UNL1     0.1456
     5 C         -2.643864   -2.046142   1.847416 C.3        1 UNL1     0.2326
     6 O         -1.27972   -2.268001   2.197785 O.3        1 UNL1     -0.3076
     7 O         -3.216825   -0.899404   2.501656 O.3        1 UNL1     -0.4605
     8 C         -3.728244   -1.116827   3.768425 C.ar        1 UNL1     0.1310
     9 C         -4.541658   -2.192646   4.140273 C.ar        1 UNL1     0.0226
     10 C         -4.996673   -2.334818   5.456575 C.ar        1 UNL1     0.1343
     11 C         -4.629363   -1.416593   6.439319 C.ar        1 UNL1     0.1007
     12 C         -3.851235   -0.315795   6.071155 C.ar        1 UNL1     0.1389
     13 C         -3.396029   -0.171638   4.746981 C.ar        1 UNL1     0.0229
     14 C         -5.012263   -1.563988   7.862631 C.2        1 UNL1     0.1740
     15 C         -4.348382   -0.613658   8.815355 C.3        1 UNL1     0.0520
     16 C         -4.282496   0.758675   8.159367 C.3        1 UNL1     0.1322
     17 O         -3.521371   0.704639   6.932648 O.3        1 UNL1     -0.4828
     18 C         -5.643849   1.446487   8.031475 C.ar        1 UNL1     -0.0067
     19 C         -6.021313   2.010704   6.795597 C.ar        1 UNL1     -0.0516
     20 C         -7.23862   2.688166   6.65713 C.ar        1 UNL1     -0.0198
     21 C         -8.082003   2.814327   7.746449 C.ar        1 UNL1     0.1169
     22 C         -7.753247   2.240579   8.967748 C.ar        1 UNL1     -0.0198
     23 C         -6.544412   1.547146   9.101637 C.ar        1 UNL1     -0.0516
     24 O         -9.241743   3.513524   7.583578 O.3        1 UNL1     -0.5068
     25 O         -5.758837   -2.448301   8.273851 O.2        1 UNL1     -0.2917
     26 O         -5.787917   -3.405885   5.753788 O.3        1 UNL1     -0.5058
     27 O         -0.229087   -0.19565   2.54149 O.3        1 UNL1     -0.3648
     28 O         0.264286   -1.953061   -0.57143 O.3        1 UNL1     -0.3841
     29 O         -2.459741   0.356711   -0.262442 O.3        1 UNL1     -0.3863
     30 O         -2.44908   -3.317144   -0.20969 O.3        1 UNL1     -0.3829
     31 H         0.62325   -1.846879   1.816954 H        1 UNL1     0.0937
     32 H         0.0   0.0   0.0 H        1 UNL1     0.0671
     33 H         -1.867762   -1.195013   -1.413724 H        1 UNL1     0.0649
     34 H         -3.84374   -1.835608   0.058465 H        1 UNL1     0.0683
     35 H         -3.200769   -2.941521   2.150783 H        1 UNL1     0.1085
     36 H         -4.81612   -2.97015   3.435803 H        1 UNL1     0.0691
     37 H         -2.792429   0.694901   4.485695 H        1 UNL1     0.0691
     38 H         -3.345112   -1.000426   9.02365 H        1 UNL1     0.0385
     39 H         -4.9104   -0.59669   9.755369 H        1 UNL1     0.0385
     40 H         -3.691026   1.405746   8.82117 H        1 UNL1     0.0789
     41 H         -5.372697   1.93323   5.927873 H        1 UNL1     0.0623
     42 H         -7.512993   3.129183   5.702021 H        1 UNL1     0.0654
     43 H         -8.413238   2.320417   9.823287 H        1 UNL1     0.0654
     44 H         -6.32449   1.102429   10.067404 H        1 UNL1     0.0623
     45 H         -9.018077   4.423952   7.330972 H        1 UNL1     0.2921
     46 H         -5.384369   -3.91642   6.473452 H        1 UNL1     0.2922
     47 H         0.513622   0.35855   2.263811 H        1 UNL1     0.2126
     48 H         1.199901   -1.878227   -0.301695 H        1 UNL1     0.2101
     49 H         -2.019227   0.939598   -0.901178 H        1 UNL1     0.2100
     50 H         -2.686841   -3.331348   -1.159943 H        1 UNL1     0.2102
@<TRIPOS>BOND
     1     1     2    1
     2     1     6    1
     3     2     3    1
     4     3     4    1
     5     3    29    1
     6     3    33    1
     7     4     5    1
     8     5     6    1
     9     5     7    1
    10     5    35    1
    11     7     8    1
    12     8     9   ar
    13     8    13   ar
    14     9    10   ar
    15     9    36    1
    16    10    11   ar
    17    10    26    1
    18    11    12   ar
    19    11    14    1
    20    12    13   ar
    21    12    17    1
    22    13    37    1
    23    14    15    1
    24    14    25    2
    25    15    16    1
    26    15    38    1
    27    15    39    1
    28    16    17    1
    29    16    18    1
    30    16    40    1
    31    18    19   ar
    32    18    23   ar
    33    19    20   ar
    34    19    41    1
    35    20    21   ar
    36    20    42    1
    37    21    22   ar
    38    21    24    1
    39    22    23   ar
    40    22    43    1
    41    23    44    1
    42    24    45    1
    43    26    46    1
    44    27    47    1
    45    28    48    1
    46    29    49    1
    47    30    50    1
    48     1    31    1
    49     1    27    1
    50     2    32    1
    51     2    28    1
    52     4    34    1
    53     4    30    1
