@<TRIPOS>MOLECULE
*****
 50 53 0 0 0
SMALL
GASTEIGER

@<TRIPOS>ATOM
     1 C         -0.357555   -1.381206   1.653853 C.3        1 UNL1     0.1889
     2 C         -0.496949   -0.964031   0.16507 C.3        1 UNL1     0.1342
     3 C         -1.944095   -0.875331   -0.343227 C.3        1 UNL1     0.1174
     4 C         -2.86077   -1.925352   0.28945 C.3        1 UNL1     0.1456
     5 C         -2.687149   -2.017263   1.816464 C.3        1 UNL1     0.2326
     6 O         -1.326619   -2.301007   2.134765 O.3        1 UNL1     -0.3076
     7 O         -3.207227   -0.875893   2.522236 O.3        1 UNL1     -0.4605
     8 C         -3.716309   -1.123879   3.784324 C.ar        1 UNL1     0.1310
     9 C         -4.572548   -2.178155   4.119965 C.ar        1 UNL1     0.0226
     10 C         -5.021555   -2.35554   5.434054 C.ar        1 UNL1     0.1343
     11 C         -4.60575   -1.496031   6.450022 C.ar        1 UNL1     0.1007
     12 C         -3.783639   -0.41545   6.119477 C.ar        1 UNL1     0.1389
     13 C         -3.334426   -0.235762   4.797603 C.ar        1 UNL1     0.0229
     14 C         -4.981985   -1.68623   7.870031 C.2        1 UNL1     0.1740
     15 C         -4.268771   -0.806239   8.854151 C.3        1 UNL1     0.0520
     16 C         -4.148914   0.588237   8.25496 C.3        1 UNL1     0.1322
     17 O         -3.401865   0.552781   7.018946 O.3        1 UNL1     -0.4828
     18 C         -5.480038   1.339019   8.170337 C.ar        1 UNL1     -0.0067
     19 C         -5.484969   2.700995   7.80536 C.ar        1 UNL1     -0.0516
     20 C         -6.679862   3.42936   7.764409 C.ar        1 UNL1     -0.0198
     21 C         -7.872826   2.810529   8.092604 C.ar        1 UNL1     0.1169
     22 C         -7.904396   1.462069   8.42351 C.ar        1 UNL1     -0.0198
     23 C         -6.711984   0.728805   8.446638 C.ar        1 UNL1     -0.0516
     24 O         -9.011412   3.561405   8.078197 O.3        1 UNL1     -0.5068
     25 O         -5.762741   -2.553887   8.252231 O.2        1 UNL1     -0.2917
     26 O         -5.856106   -3.402904   5.695087 O.3        1 UNL1     -0.5058
     27 O         -0.195476   -0.282097   2.536167 O.3        1 UNL1     -0.3648
     28 O         0.183457   -1.938593   -0.647324 O.3        1 UNL1     -0.3841
     29 O         -2.448913   0.454557   -0.206518 O.3        1 UNL1     -0.3863
     30 O         -2.571899   -3.216706   -0.289036 O.3        1 UNL1     -0.3829
     31 H         0.584166   -1.934707   1.736775 H        1 UNL1     0.0937
     32 H         0.0   0.0   0.0 H        1 UNL1     0.0671
     33 H         -1.932594   -1.073368   -1.424138 H        1 UNL1     0.0649
     34 H         -3.906932   -1.696993   0.057507 H        1 UNL1     0.0683
     35 H         -3.271539   -2.90273   2.096312 H        1 UNL1     0.1085
     36 H         -4.886969   -2.91287   3.386852 H        1 UNL1     0.0691
     37 H         -2.695938   0.614053   4.566 H        1 UNL1     0.0691
     38 H         -3.281517   -1.244409   9.035434 H        1 UNL1     0.0385
     39 H         -4.82109   -0.804382   9.800046 H        1 UNL1     0.0385
     40 H         -3.523876   1.180837   8.936629 H        1 UNL1     0.0789
     41 H         -4.560633   3.212024   7.552172 H        1 UNL1     0.0623
     42 H         -6.6691   4.482081   7.492978 H        1 UNL1     0.0654
     43 H         -8.834996   0.963782   8.667649 H        1 UNL1     0.0654
     44 H         -6.77506   -0.325257   8.699261 H        1 UNL1     0.0623
     45 H         -8.942408   4.236468   8.772636 H        1 UNL1     0.2921
     46 H         -5.631888   -3.788227   6.556867 H        1 UNL1     0.2922
     47 H         0.551519   0.264961   2.255836 H        1 UNL1     0.2126
     48 H         1.140139   -1.797444   -0.511051 H        1 UNL1     0.2101
     49 H         -2.14909   0.999557   -0.951417 H        1 UNL1     0.2100
     50 H         -2.846122   -3.194054   -1.22925 H        1 UNL1     0.2102
@<TRIPOS>BOND
     1     1     2    1
     2     1     6    1
     3     2     3    1
     4     3     4    1
     5     3    29    1
     6     3    33    1
     7     4     5    1
     8     5     6    1
     9     5     7    1
    10     5    35    1
    11     7     8    1
    12     8     9   ar
    13     8    13   ar
    14     9    10   ar
    15     9    36    1
    16    10    11   ar
    17    10    26    1
    18    11    12   ar
    19    11    14    1
    20    12    13   ar
    21    12    17    1
    22    13    37    1
    23    14    15    1
    24    14    25    2
    25    15    16    1
    26    15    38    1
    27    15    39    1
    28    16    17    1
    29    16    18    1
    30    16    40    1
    31    18    19   ar
    32    18    23   ar
    33    19    20   ar
    34    19    41    1
    35    20    21   ar
    36    20    42    1
    37    21    22   ar
    38    21    24    1
    39    22    23   ar
    40    22    43    1
    41    23    44    1
    42    24    45    1
    43    26    46    1
    44    27    47    1
    45    28    48    1
    46    29    49    1
    47    30    50    1
    48     1    31    1
    49     1    27    1
    50     2    32    1
    51     2    28    1
    52     4    34    1
    53     4    30    1
