@<TRIPOS>MOLECULE
*****
 50 53 0 0 0
SMALL
GASTEIGER

@<TRIPOS>ATOM
     1 C         -0.33142   -1.328049   1.702131 C.3        1 UNL1     0.1889
     2 C         -0.461722   -0.975709   0.195872 C.3        1 UNL1     0.1342
     3 C         -1.902406   -0.96451   -0.337768 C.3        1 UNL1     0.1174
     4 C         -2.788047   -2.024279   0.322268 C.3        1 UNL1     0.1456
     5 C         -2.636873   -2.049001   1.854227 C.3        1 UNL1     0.2326
     6 O         -1.271906   -2.265858   2.204522 O.3        1 UNL1     -0.3076
     7 O         -3.212926   -0.90221   2.505652 O.3        1 UNL1     -0.4605
     8 C         -3.722658   -1.117628   3.773444 C.ar        1 UNL1     0.1310
     9 C         -4.538077   -2.191215   4.14735 C.ar        1 UNL1     0.0226
     10 C         -4.991134   -2.331492   5.46453 C.ar        1 UNL1     0.1343
     11 C         -4.619831   -1.413605   6.446089 C.ar        1 UNL1     0.1007
     12 C         -3.839631   -0.31495   6.075914 C.ar        1 UNL1     0.1389
     13 C         -3.386393   -0.172693   4.75086 C.ar        1 UNL1     0.0229
     14 C         -5.000598   -1.559221   7.870156 C.2        1 UNL1     0.1740
     15 C         -4.332699   -0.60998   8.821156 C.3        1 UNL1     0.0520
     16 C         -4.26457   0.761802   8.164246 C.3        1 UNL1     0.1322
     17 O         -3.505734   0.705168   6.936227 O.3        1 UNL1     -0.4828
     18 C         -5.624441   1.452905   8.038335 C.ar        1 UNL1     -0.0067
     19 C         -6.003853   2.014878   6.802031 C.ar        1 UNL1     -0.0516
     20 C         -7.219735   2.695218   6.665171 C.ar        1 UNL1     -0.0198
     21 C         -8.059734   2.82649   7.756499 C.ar        1 UNL1     0.1169
     22 C         -7.729096   2.255079   8.978385 C.ar        1 UNL1     -0.0198
     23 C         -6.521741   1.558778   9.110733 C.ar        1 UNL1     -0.0516
     24 O         -9.218061   3.528348   7.595017 O.3        1 UNL1     -0.5068
     25 O         -5.748634   -2.441445   8.283203 O.2        1 UNL1     -0.2917
     26 O         -5.784501   -3.400424   5.763759 O.3        1 UNL1     -0.5058
     27 O         -0.227276   -0.189472   2.542121 O.3        1 UNL1     -0.3648
     28 O         0.269818   -1.953801   -0.56629 O.3        1 UNL1     -0.3841
     29 O         -2.460918   0.348687   -0.262194 O.3        1 UNL1     -0.3863
     30 O         -2.439303   -3.324965   -0.19954 O.3        1 UNL1     -0.3829
     31 H         0.629619   -1.840108   1.821622 H        1 UNL1     0.0937
     32 H         0.0   0.0   0.0 H        1 UNL1     0.0671
     33 H         -1.864882   -1.204371   -1.409578 H        1 UNL1     0.0649
     34 H         -3.838235   -1.846863   0.065304 H        1 UNL1     0.0683
     35 H         -3.190965   -2.945211   2.160281 H        1 UNL1     0.1085
     36 H         -4.815696   -2.968449   3.443819 H        1 UNL1     0.0691
     37 H         -2.78111   0.692197   4.488007 H        1 UNL1     0.0691
     38 H         -3.330025   -0.999107   9.02792 H        1 UNL1     0.0385
     39 H         -4.893024   -0.591073   9.762143 H        1 UNL1     0.0385
     40 H         -3.670343   1.407794   8.824631 H        1 UNL1     0.0789
     41 H         -5.357871   1.933394   5.932711 H        1 UNL1     0.0623
     42 H         -7.4956   3.134455   5.709671 H        1 UNL1     0.0654
     43 H         -8.386481   2.338925   9.835546 H        1 UNL1     0.0654
     44 H         -6.300307   1.116015   10.077052 H        1 UNL1     0.0623
     45 H         -8.992835   4.436   7.333946 H        1 UNL1     0.2921
     46 H         -5.380264   -3.912313   6.482073 H        1 UNL1     0.2922
     47 H         0.515341   0.364772   2.264284 H        1 UNL1     0.2126
     48 H         1.202601   -1.887136   -0.284858 H        1 UNL1     0.2101
     49 H         -2.022329   0.931199   -0.902596 H        1 UNL1     0.2100
     50 H         -2.672263   -3.340509   -1.15096 H        1 UNL1     0.2102
@<TRIPOS>BOND
     1     1     2    1
     2     1     6    1
     3     2     3    1
     4     3     4    1
     5     3    29    1
     6     3    33    1
     7     4     5    1
     8     5     6    1
     9     5     7    1
    10     5    35    1
    11     7     8    1
    12     8     9   ar
    13     8    13   ar
    14     9    10   ar
    15     9    36    1
    16    10    11   ar
    17    10    26    1
    18    11    12   ar
    19    11    14    1
    20    12    13   ar
    21    12    17    1
    22    13    37    1
    23    14    15    1
    24    14    25    2
    25    15    16    1
    26    15    38    1
    27    15    39    1
    28    16    17    1
    29    16    18    1
    30    16    40    1
    31    18    19   ar
    32    18    23   ar
    33    19    20   ar
    34    19    41    1
    35    20    21   ar
    36    20    42    1
    37    21    22   ar
    38    21    24    1
    39    22    23   ar
    40    22    43    1
    41    23    44    1
    42    24    45    1
    43    26    46    1
    44    27    47    1
    45    28    48    1
    46    29    49    1
    47    30    50    1
    48     1    31    1
    49     1    27    1
    50     2    32    1
    51     2    28    1
    52     4    34    1
    53     4    30    1
