@<TRIPOS>MOLECULE
*****
 50 53 0 0 0
SMALL
GASTEIGER

@<TRIPOS>ATOM
     1 C         0.552538   -1.962645   -0.783282 C.3        1 UNL1     0.1889
     2 C         0.078315   -1.031643   0.364885 C.3        1 UNL1     0.1342
     3 C         0.967798   -1.053995   1.617397 C.3        1 UNL1     0.1174
     4 C         1.568394   -2.434486   1.89425 C.3        1 UNL1     0.1456
     5 C         2.165674   -3.082279   0.63172 C.3        1 UNL1     0.2326
     6 O         1.169133   -3.177709   -0.383498 O.3        1 UNL1     -0.3076
     7 O         3.375417   -2.447366   0.179248 O.3        1 UNL1     -0.4605
     8 C         4.132976   -3.164232   -0.729452 C.ar        1 UNL1     0.1310
     9 C         5.098097   -4.122763   -0.402253 C.ar        1 UNL1     0.0226
     10 C         5.802777   -4.809511   -1.398097 C.ar        1 UNL1     0.1343
     11 C         5.542227   -4.571219   -2.746864 C.ar        1 UNL1     0.1007
     12 C         4.609979   -3.586984   -3.085952 C.ar        1 UNL1     0.1389
     13 C         3.903454   -2.894718   -2.084443 C.ar        1 UNL1     0.0229
     14 C         6.196911   -5.327485   -3.839386 C.2        1 UNL1     0.1740
     15 C         5.637736   -5.09898   -5.212943 C.3        1 UNL1     0.0520
     16 C         5.322835   -3.617154   -5.364553 C.3        1 UNL1     0.1322
     17 O         4.353835   -3.195441   -4.379532 O.3        1 UNL1     -0.4828
     18 C         6.566182   -2.728816   -5.452124 C.ar        1 UNL1     -0.0067
     19 C         6.680288   -1.799192   -6.506161 C.ar        1 UNL1     -0.0516
     20 C         7.825075   -1.004972   -6.642684 C.ar        1 UNL1     -0.0198
     21 C         8.863469   -1.135843   -5.738009 C.ar        1 UNL1     0.1169
     22 C         8.766405   -2.0186   -4.670227 C.ar        1 UNL1     -0.0198
     23 C         7.613947   -2.799738   -4.522849 C.ar        1 UNL1     -0.0516
     24 O         9.978416   -0.372688   -5.924795 O.3        1 UNL1     -0.5068
     25 O         7.086232   -6.15347   -3.651392 O.2        1 UNL1     -0.2917
     26 O         6.731799   -5.731294   -1.012325 O.3        1 UNL1     -0.5058
     27 O         1.311135   -1.292748   -1.777543 O.3        1 UNL1     -0.3648
     28 O         -1.241181   -1.44177   0.769152 O.3        1 UNL1     -0.3841
     29 O         1.955357   -0.022906   1.556439 O.3        1 UNL1     -0.3863
     30 O         0.539852   -3.302064   2.418748 O.3        1 UNL1     -0.3829
     31 H         -0.349089   -2.29418   -1.309809 H        1 UNL1     0.0937
     32 H         0.0   0.0   0.0 H        1 UNL1     0.0671
     33 H         0.336752   -0.802884   2.481367 H        1 UNL1     0.0649
     34 H         2.345179   -2.357046   2.663022 H        1 UNL1     0.0683
     35 H         2.400106   -4.107085   0.945875 H        1 UNL1     0.1085
     36 H         5.306876   -4.393492   0.62694 H        1 UNL1     0.0691
     37 H         3.183677   -2.132352   -2.374638 H        1 UNL1     0.0691
     38 H         4.731618   -5.706953   -5.306997 H        1 UNL1     0.0385
     39 H         6.361788   -5.446716   -5.957663 H        1 UNL1     0.0385
     40 H         4.808196   -3.492396   -6.326895 H        1 UNL1     0.0789
     41 H         5.882945   -1.684062   -7.234611 H        1 UNL1     0.0623
     42 H         7.906176   -0.300263   -7.466589 H        1 UNL1     0.0654
     43 H         9.567314   -2.118255   -3.947369 H        1 UNL1     0.0654
     44 H         7.567587   -3.471265   -3.67094 H        1 UNL1     0.0623
     45 H         10.6664   -0.927915   -6.32619 H        1 UNL1     0.2921
     46 H         6.708417   -5.829878   -0.047366 H        1 UNL1     0.2922
     47 H         0.782732   -1.17531   -2.579327 H        1 UNL1     0.2126
     48 H         -1.626213   -1.928246   0.014948 H        1 UNL1     0.2101
     49 H         2.810277   -0.366328   1.861344 H        1 UNL1     0.2100
     50 H         0.4712   -3.13996   3.38245 H        1 UNL1     0.2102
@<TRIPOS>BOND
     1     1     2    1
     2     1     6    1
     3     2     3    1
     4     3     4    1
     5     3    29    1
     6     3    33    1
     7     4     5    1
     8     5     6    1
     9     5     7    1
    10     5    35    1
    11     7     8    1
    12     8     9   ar
    13     8    13   ar
    14     9    10   ar
    15     9    36    1
    16    10    11   ar
    17    10    26    1
    18    11    12   ar
    19    11    14    1
    20    12    13   ar
    21    12    17    1
    22    13    37    1
    23    14    15    1
    24    14    25    2
    25    15    16    1
    26    15    38    1
    27    15    39    1
    28    16    17    1
    29    16    18    1
    30    16    40    1
    31    18    19   ar
    32    18    23   ar
    33    19    20   ar
    34    19    41    1
    35    20    21   ar
    36    20    42    1
    37    21    22   ar
    38    21    24    1
    39    22    23   ar
    40    22    43    1
    41    23    44    1
    42    24    45    1
    43    26    46    1
    44    27    47    1
    45    28    48    1
    46    29    49    1
    47    30    50    1
    48     1    31    1
    49     1    27    1
    50     2    32    1
    51     2    28    1
    52     4    34    1
    53     4    30    1
