@<TRIPOS>MOLECULE
*****
 50 53 0 0 0
SMALL
GASTEIGER

@<TRIPOS>ATOM
     1 C         0.242779   -1.762387   1.267224 C.3        1 UNL1     0.1889
     2 C         -0.333061   -1.045158   0.016651 C.3        1 UNL1     0.1342
     3 C         -1.864729   -1.084859   -0.096856 C.3        1 UNL1     0.1174
     4 C         -2.465506   -2.389266   0.432962 C.3        1 UNL1     0.1456
     5 C         -1.879896   -2.797547   1.797048 C.3        1 UNL1     0.2326
     6 O         -0.46224   -2.915924   1.701616 O.3        1 UNL1     -0.3076
     7 O         -2.305372   -1.950682   2.88015 O.3        1 UNL1     -0.4605
     8 C         -2.417918   -2.559243   4.11729 C.ar        1 UNL1     0.1310
     9 C         -3.033326   -3.791775   4.361092 C.ar        1 UNL1     0.0226
     10 C         -3.081513   -4.3341   5.650846 C.ar        1 UNL1     0.1343
     11 C         -2.493938   -3.667562   6.72524 C.ar        1 UNL1     0.1007
     12 C         -1.912485   -2.41674   6.501315 C.ar        1 UNL1     0.1389
     13 C         -1.866489   -1.870418   5.20484 C.ar        1 UNL1     0.0229
     14 C         -2.442044   -4.233661   8.093082 C.2        1 UNL1     0.1740
     15 C         -1.581206   -3.489764   9.071409 C.3        1 UNL1     0.0520
     16 C         -1.77767   -1.996646   8.847896 C.3        1 UNL1     0.1322
     17 O         -1.400915   -1.62545   7.503523 O.3        1 UNL1     -0.4828
     18 C         -3.151431   -1.483494   9.286278 C.ar        1 UNL1     -0.0067
     19 C         -3.897641   -0.667808   8.411039 C.ar        1 UNL1     -0.0516
     20 C         -5.136192   -0.142933   8.798931 C.ar        1 UNL1     -0.0198
     21 C         -5.634915   -0.41973   10.059283 C.ar        1 UNL1     0.1169
     22 C         -4.938994   -1.247047   10.931107 C.ar        1 UNL1     -0.0198
     23 C         -3.709045   -1.787087   10.536595 C.ar        1 UNL1     -0.0516
     24 O         -6.826576   0.139875   10.415918 O.3        1 UNL1     -0.5068
     25 O         -2.991998   -5.284806   8.411092 O.2        1 UNL1     -0.2917
     26 O         -3.697489   -5.539518   5.821511 O.3        1 UNL1     -0.5058
     27 O         0.52242   -0.882826   2.344702 O.3        1 UNL1     -0.3648
     28 O         0.200297   -1.680956   -1.159781 O.3        1 UNL1     -0.3841
     29 O         -2.447632   0.075442   0.499852 O.3        1 UNL1     -0.3863
     30 O         -2.211978   -3.447585   -0.516444 O.3        1 UNL1     -0.3829
     31 H         1.223694   -2.155443   0.978449 H        1 UNL1     0.0937
     32 H         0.0   0.0   0.0 H        1 UNL1     0.0671
     33 H         -2.123606   -1.025832   -1.16326 H        1 UNL1     0.0649
     34 H         -3.553197   -2.291408   0.521015 H        1 UNL1     0.0683
     35 H         -2.273941   -3.808142   1.962289 H        1 UNL1     0.1085
     36 H         -3.459084   -4.385038   3.559288 H        1 UNL1     0.0691
     37 H         -1.40909   -0.89447   5.057173 H        1 UNL1     0.0691
     38 H         -0.542056   -3.783193   8.88812 H        1 UNL1     0.0385
     39 H         -1.848366   -3.794789   10.088937 H        1 UNL1     0.0385
     40 H         -1.054431   -1.475363   9.489542 H        1 UNL1     0.0789
     41 H         -3.523734   -0.428348   7.419826 H        1 UNL1     0.0623
     42 H         -5.696554   0.494469   8.119428 H        1 UNL1     0.0654
     43 H         -5.327412   -1.482523   11.91477 H        1 UNL1     0.0654
     44 H         -3.197484   -2.437951   11.239108 H        1 UNL1     0.0623
     45 H         -6.732194   1.105825   10.388543 H        1 UNL1     0.2921
     46 H         -3.077955   -6.164414   6.230281 H        1 UNL1     0.2922
     47 H         1.119933   -0.178956   2.055902 H        1 UNL1     0.2126
     48 H         1.167933   -1.551699   -1.133219 H        1 UNL1     0.2101
     49 H         -2.243344   0.859335   -0.034536 H        1 UNL1     0.2100
     50 H         -2.711533   -3.244902   -1.334416 H        1 UNL1     0.2102
@<TRIPOS>BOND
     1     1     2    1
     2     1     6    1
     3     2     3    1
     4     3     4    1
     5     3    29    1
     6     3    33    1
     7     4     5    1
     8     5     6    1
     9     5     7    1
    10     5    35    1
    11     7     8    1
    12     8     9   ar
    13     8    13   ar
    14     9    10   ar
    15     9    36    1
    16    10    11   ar
    17    10    26    1
    18    11    12   ar
    19    11    14    1
    20    12    13   ar
    21    12    17    1
    22    13    37    1
    23    14    15    1
    24    14    25    2
    25    15    16    1
    26    15    38    1
    27    15    39    1
    28    16    17    1
    29    16    18    1
    30    16    40    1
    31    18    19   ar
    32    18    23   ar
    33    19    20   ar
    34    19    41    1
    35    20    21   ar
    36    20    42    1
    37    21    22   ar
    38    21    24    1
    39    22    23   ar
    40    22    43    1
    41    23    44    1
    42    24    45    1
    43    26    46    1
    44    27    47    1
    45    28    48    1
    46    29    49    1
    47    30    50    1
    48     1    31    1
    49     1    27    1
    50     2    32    1
    51     2    28    1
    52     4    34    1
    53     4    30    1
