@<TRIPOS>MOLECULE
*****
 50 53 0 0 0
SMALL
GASTEIGER

@<TRIPOS>ATOM
     1 C         -0.330276   -1.327176   1.703034 C.3        1 UNL1     0.1889
     2 C         -0.461625   -0.975591   0.196689 C.3        1 UNL1     0.1342
     3 C         -1.902684   -0.964599   -0.33594 C.3        1 UNL1     0.1174
     4 C         -2.787904   -2.023997   0.325254 C.3        1 UNL1     0.1456
     5 C         -2.635652   -2.047953   1.857119 C.3        1 UNL1     0.2326
     6 O         -1.270447   -2.264691   2.206561 O.3        1 UNL1     -0.3076
     7 O         -3.211197   -0.900809   2.508371 O.3        1 UNL1     -0.4605
     8 C         -3.720045   -1.115566   3.77663 C.ar        1 UNL1     0.1310
     9 C         -3.500878   -0.293903   4.887547 C.ar        1 UNL1     0.0226
     10 C         -4.075779   -0.587749   6.129741 C.ar        1 UNL1     0.1343
     11 C         -4.903969   -1.69847   6.285434 C.ar        1 UNL1     0.1007
     12 C         -5.097116   -2.549089   5.193681 C.ar        1 UNL1     0.1389
     13 C         -4.516806   -2.254861   3.945441 C.ar        1 UNL1     0.0229
     14 C         -5.604321   -2.009417   7.553099 C.2        1 UNL1     0.1740
     15 C         -6.624487   -3.107278   7.478866 C.3        1 UNL1     0.0520
     16 C         -6.073816   -4.21769   6.594725 C.3        1 UNL1     0.1322
     17 O         -5.804507   -3.726826   5.262961 O.3        1 UNL1     -0.4828
     18 C         -4.918558   -4.995319   7.22986 C.ar        1 UNL1     -0.0067
     19 C         -3.743221   -5.221224   6.484364 C.ar        1 UNL1     -0.0516
     20 C         -2.686757   -5.968991   7.017929 C.ar        1 UNL1     -0.0198
     21 C         -2.796103   -6.501224   8.290171 C.ar        1 UNL1     0.1169
     22 C         -3.927236   -6.267817   9.061467 C.ar        1 UNL1     -0.0198
     23 C         -4.976264   -5.504552   8.535136 C.ar        1 UNL1     -0.0516
     24 O         -1.762511   -7.255854   8.761998 O.3        1 UNL1     -0.5068
     25 O         -5.4388   -1.373298   8.590615 O.2        1 UNL1     -0.2917
     26 O         -3.821748   0.253297   7.173626 O.3        1 UNL1     -0.5058
     27 O         -0.225492   -0.188179   2.542376 O.3        1 UNL1     -0.3648
     28 O         0.269336   -1.954098   -0.565495 O.3        1 UNL1     -0.3841
     29 O         -2.461087   0.34866   -0.260635 O.3        1 UNL1     -0.3863
     30 O         -2.439584   -3.324961   -0.196143 O.3        1 UNL1     -0.3829
     31 H         0.630825   -1.839216   1.822106 H        1 UNL1     0.0937
     32 H         0.0   0.0   0.0 H        1 UNL1     0.0671
     33 H         -1.865926   -1.205003   -1.407656 H        1 UNL1     0.0649
     34 H         -3.838266   -1.846666   0.068942 H        1 UNL1     0.0683
     35 H         -3.189566   -2.943984   2.164015 H        1 UNL1     0.1085
     36 H         -2.912552   0.614458   4.817732 H        1 UNL1     0.0691
     37 H         -4.681637   -2.933652   3.111435 H        1 UNL1     0.0691
     38 H         -7.539416   -2.681   7.053755 H        1 UNL1     0.0385
     39 H         -6.849063   -3.457681   8.49206 H        1 UNL1     0.0385
     40 H         -6.878808   -4.952576   6.458897 H        1 UNL1     0.0789
     41 H         -3.636614   -4.821881   5.479968 H        1 UNL1     0.0623
     42 H         -1.790477   -6.146263   6.428636 H        1 UNL1     0.0654
     43 H         -4.017054   -6.667249   10.06461 H        1 UNL1     0.0654
     44 H         -5.840576   -5.333245   9.169537 H        1 UNL1     0.0623
     45 H         -1.646176   -8.019026   8.173141 H        1 UNL1     0.2921
     46 H         -4.659777   0.582837   7.534905 H        1 UNL1     0.2922
     47 H         0.517058   0.365805   2.263843 H        1 UNL1     0.2126
     48 H         1.202201   -1.887819   -0.284241 H        1 UNL1     0.2101
     49 H         -2.022926   0.930829   -0.901639 H        1 UNL1     0.2100
     50 H         -2.673215   -3.340975   -1.147391 H        1 UNL1     0.2102
@<TRIPOS>BOND
     1     1     2    1
     2     1     6    1
     3     2     3    1
     4     3     4    1
     5     3    29    1
     6     3    33    1
     7     4     5    1
     8     5     6    1
     9     5     7    1
    10     5    35    1
    11     7     8    1
    12     8     9   ar
    13     8    13   ar
    14     9    10   ar
    15     9    36    1
    16    10    11   ar
    17    10    26    1
    18    11    12   ar
    19    11    14    1
    20    12    13   ar
    21    12    17    1
    22    13    37    1
    23    14    15    1
    24    14    25    2
    25    15    16    1
    26    15    38    1
    27    15    39    1
    28    16    17    1
    29    16    18    1
    30    16    40    1
    31    18    19   ar
    32    18    23   ar
    33    19    20   ar
    34    19    41    1
    35    20    21   ar
    36    20    42    1
    37    21    22   ar
    38    21    24    1
    39    22    23   ar
    40    22    43    1
    41    23    44    1
    42    24    45    1
    43    26    46    1
    44    27    47    1
    45    28    48    1
    46    29    49    1
    47    30    50    1
    48     1    31    1
    49     1    27    1
    50     2    32    1
    51     2    28    1
    52     4    34    1
    53     4    30    1
