@<TRIPOS>MOLECULE
*****
 50 53 0 0 0
SMALL
GASTEIGER

@<TRIPOS>ATOM
     1 C         -0.314716   -1.346504   1.690765 C.3        1 UNL1     0.1889
     2 C         -0.459328   -0.978061   0.189673 C.3        1 UNL1     0.1342
     3 C         -1.904958   -0.962058   -0.330293 C.3        1 UNL1     0.1174
     4 C         -2.783788   -2.029445   0.326563 C.3        1 UNL1     0.1456
     5 C         -2.618244   -2.070552   1.856684 C.3        1 UNL1     0.2326
     6 O         -1.249933   -2.290277   2.19182 O.3        1 UNL1     -0.3076
     7 O         -3.188795   -0.931213   2.525787 O.3        1 UNL1     -0.4605
     8 C         -3.686926   -1.160697   3.79572 C.ar        1 UNL1     0.1310
     9 C         -4.498517   -2.238687   4.165258 C.ar        1 UNL1     0.0226
     10 C         -4.939555   -2.393548   5.484882 C.ar        1 UNL1     0.1343
     11 C         -4.559709   -1.486252   6.472997 C.ar        1 UNL1     0.1007
     12 C         -3.783311   -0.383253   6.107782 C.ar        1 UNL1     0.1389
     13 C         -3.342164   -0.226327   4.780306 C.ar        1 UNL1     0.0229
     14 C         -4.927489   -1.647583   7.898783 C.2        1 UNL1     0.1740
     15 C         -4.251348   -0.708461   8.853996 C.3        1 UNL1     0.0520
     16 C         -4.189695   0.670441   8.211512 C.3        1 UNL1     0.1322
     17 O         -3.442007   0.627573   6.97612 O.3        1 UNL1     -0.4828
     18 C         -5.550911   1.362232   8.105488 C.ar        1 UNL1     -0.0067
     19 C         -5.940943   1.939116   6.8794 C.ar        1 UNL1     -0.0516
     20 C         -7.158262   2.620365   6.76109 C.ar        1 UNL1     -0.0198
     21 C         -7.989153   2.73773   7.860941 C.ar        1 UNL1     0.1169
     22 C         -7.648009   2.151556   9.072907 C.ar        1 UNL1     -0.0198
     23 C         -6.439247   1.454398   9.18658 C.ar        1 UNL1     -0.0516
     24 O         -9.149135   3.440832   7.717795 O.3        1 UNL1     -0.5068
     25 O         -5.671416   -2.534617   8.308938 O.2        1 UNL1     -0.2917
     26 O         -5.729774   -3.466058   5.779602 O.3        1 UNL1     -0.5058
     27 O         -0.203327   -0.216964   2.541952 O.3        1 UNL1     -0.3648
     28 O         0.265572   -1.947418   -0.589796 O.3        1 UNL1     -0.3841
     29 O         -2.46346   0.349885   -0.235356 O.3        1 UNL1     -0.3863
     30 O         -2.439237   -3.324213   -0.212463 O.3        1 UNL1     -0.3829
     31 H         0.647683   -1.859193   1.795726 H        1 UNL1     0.0937
     32 H         0.0   0.0   0.0 H        1 UNL1     0.0671
     33 H         -1.877353   -1.190348   -1.404929 H        1 UNL1     0.0649
     34 H         -3.836436   -1.849958   0.081376 H        1 UNL1     0.0683
     35 H         -3.168949   -2.970364   2.158249 H        1 UNL1     0.1085
     36 H         -4.782214   -3.008328   3.455829 H        1 UNL1     0.0691
     37 H         -2.739615   0.641668   4.521436 H        1 UNL1     0.0691
     38 H         -3.246693   -1.099346   9.047401 H        1 UNL1     0.0385
     39 H         -4.803122   -0.700091   9.800175 H        1 UNL1     0.0385
     40 H         -3.589745   1.309469   8.873497 H        1 UNL1     0.0789
     41 H         -5.302228   1.868694   6.003766 H        1 UNL1     0.0623
     42 H         -7.442339   3.071136   5.813399 H        1 UNL1     0.0654
     43 H         -8.29823   2.224483   9.936506 H        1 UNL1     0.0654
     44 H         -6.209507   0.999937   10.1455 H        1 UNL1     0.0623
     45 H         -8.926549   4.351754   7.466015 H        1 UNL1     0.2921
     46 H         -5.318846   -3.985564   6.48859 H        1 UNL1     0.2922
     47 H         0.536347   0.340721   2.263152 H        1 UNL1     0.2126
     48 H         1.200916   -1.883178   -0.316414 H        1 UNL1     0.2101
     49 H         -2.031215   0.93954   -0.87353 H        1 UNL1     0.2100
     50 H         -2.681098   -3.32967   -1.161771 H        1 UNL1     0.2102
@<TRIPOS>BOND
     1     1     2    1
     2     1     6    1
     3     2     3    1
     4     3     4    1
     5     3    29    1
     6     3    33    1
     7     4     5    1
     8     5     6    1
     9     5     7    1
    10     5    35    1
    11     7     8    1
    12     8     9   ar
    13     8    13   ar
    14     9    10   ar
    15     9    36    1
    16    10    11   ar
    17    10    26    1
    18    11    12   ar
    19    11    14    1
    20    12    13   ar
    21    12    17    1
    22    13    37    1
    23    14    15    1
    24    14    25    2
    25    15    16    1
    26    15    38    1
    27    15    39    1
    28    16    17    1
    29    16    18    1
    30    16    40    1
    31    18    19   ar
    32    18    23   ar
    33    19    20   ar
    34    19    41    1
    35    20    21   ar
    36    20    42    1
    37    21    22   ar
    38    21    24    1
    39    22    23   ar
    40    22    43    1
    41    23    44    1
    42    24    45    1
    43    26    46    1
    44    27    47    1
    45    28    48    1
    46    29    49    1
    47    30    50    1
    48     1    31    1
    49     1    27    1
    50     2    32    1
    51     2    28    1
    52     4    34    1
    53     4    30    1
