@<TRIPOS>MOLECULE
*****
 50 53 0 0 0
SMALL
GASTEIGER

@<TRIPOS>ATOM
     1 C         -0.358159   -1.361642   1.669868 C.3        1 UNL1     0.1889
     2 C         -0.443241   -0.989879   0.165044 C.3        1 UNL1     0.1342
     3 C         -1.863622   -1.00684   -0.420358 C.3        1 UNL1     0.1174
     4 C         -2.744893   -2.098452   0.191901 C.3        1 UNL1     0.1456
     5 C         -2.648302   -2.142604   1.727832 C.3        1 UNL1     0.2326
     6 O         -1.291688   -2.330334   2.124349 O.3        1 UNL1     -0.3076
     7 O         -3.276677   -1.020688   2.374184 O.3        1 UNL1     -0.4605
     8 C         -3.825951   -1.268076   3.619425 C.ar        1 UNL1     0.1310
     9 C         -4.626428   -2.367391   3.948126 C.ar        1 UNL1     0.0226
     10 C         -5.122787   -2.538995   5.245848 C.ar        1 UNL1     0.1343
     11 C         -4.810718   -1.627053   6.253229 C.ar        1 UNL1     0.1007
     12 C         -4.046203   -0.503624   5.927334 C.ar        1 UNL1     0.1389
     13 C         -3.549431   -0.329918   4.621779 C.ar        1 UNL1     0.0229
     14 C         -5.238563   -1.803795   7.660305 C.2        1 UNL1     0.1740
     15 C         -4.629895   -0.852587   8.648371 C.3        1 UNL1     0.0520
     16 C         -4.573467   0.530285   8.013989 C.3        1 UNL1     0.1322
     17 O         -3.769772   0.511402   6.813661 O.3        1 UNL1     -0.4828
     18 C         -5.945241   1.18878   7.848631 C.ar        1 UNL1     -0.0067
     19 C         -6.294326   1.759618   6.607463 C.ar        1 UNL1     -0.0516
     20 C         -7.521583   2.411143   6.436236 C.ar        1 UNL1     -0.0198
     21 C         -8.403321   2.504762   7.498121 C.ar        1 UNL1     0.1169
     22 C         -8.102202   1.92348   8.722979 C.ar        1 UNL1     -0.0198
     23 C         -6.882893   1.255855   8.889162 C.ar        1 UNL1     -0.0516
     24 O         -9.572747   3.179615   7.304684 O.3        1 UNL1     -0.5068
     25 O         -5.978047   -2.710729   8.033293 O.2        1 UNL1     -0.2917
     26 O         -5.898669   -3.631969   5.500796 O.3        1 UNL1     -0.5058
     27 O         -0.313569   -0.23368   2.529229 O.3        1 UNL1     -0.3648
     28 O         0.340116   -1.937576   -0.583907 O.3        1 UNL1     -0.3841
     29 O         -2.458049   0.290589   -0.34641 O.3        1 UNL1     -0.3863
     30 O         -2.34431   -3.381884   -0.335381 O.3        1 UNL1     -0.3829
     31 H         0.610804   -1.851109   1.816876 H        1 UNL1     0.0937
     32 H         0.0   0.0   0.0 H        1 UNL1     0.0671
     33 H         -1.781442   -1.229391   -1.493408 H        1 UNL1     0.0649
     34 H         -3.789377   -1.943641   -0.100483 H        1 UNL1     0.0683
     35 H         -3.189826   -3.057014   2.000753 H        1 UNL1     0.1085
     36 H         -4.858513   -3.140601   3.223969 H        1 UNL1     0.0691
     37 H         -2.957515   0.553819   4.39344 H        1 UNL1     0.0691
     38 H         -3.625634   -1.219452   8.88585 H        1 UNL1     0.0385
     39 H         -5.223985   -0.862065   9.568559 H        1 UNL1     0.0385
     40 H         -4.020159   1.180931   8.704662 H        1 UNL1     0.0789
     41 H         -5.615667   1.707535   5.761083 H        1 UNL1     0.0623
     42 H         -7.774152   2.857666   5.477675 H        1 UNL1     0.0654
     43 H         -8.791878   1.977821   9.556829 H        1 UNL1     0.0654
     44 H         -6.684999   0.804275   9.856508 H        1 UNL1     0.0623
     45 H         -9.361666   4.096187   7.063732 H        1 UNL1     0.2921
     46 H         -5.506798   -4.145061   6.225079 H        1 UNL1     0.2922
     47 H         0.424173   0.34314   2.286587 H        1 UNL1     0.2126
     48 H         1.259969   -1.852485   -0.267108 H        1 UNL1     0.2101
     49 H         -2.011779   0.893624   -0.962028 H        1 UNL1     0.2100
     50 H         -2.542442   -3.388847   -1.29476 H        1 UNL1     0.2102
@<TRIPOS>BOND
     1     1     2    1
     2     1     6    1
     3     2     3    1
     4     3     4    1
     5     3    29    1
     6     3    33    1
     7     4     5    1
     8     5     6    1
     9     5     7    1
    10     5    35    1
    11     7     8    1
    12     8     9   ar
    13     8    13   ar
    14     9    10   ar
    15     9    36    1
    16    10    11   ar
    17    10    26    1
    18    11    12   ar
    19    11    14    1
    20    12    13   ar
    21    12    17    1
    22    13    37    1
    23    14    15    1
    24    14    25    2
    25    15    16    1
    26    15    38    1
    27    15    39    1
    28    16    17    1
    29    16    18    1
    30    16    40    1
    31    18    19   ar
    32    18    23   ar
    33    19    20   ar
    34    19    41    1
    35    20    21   ar
    36    20    42    1
    37    21    22   ar
    38    21    24    1
    39    22    23   ar
    40    22    43    1
    41    23    44    1
    42    24    45    1
    43    26    46    1
    44    27    47    1
    45    28    48    1
    46    29    49    1
    47    30    50    1
    48     1    31    1
    49     1    27    1
    50     2    32    1
    51     2    28    1
    52     4    34    1
    53     4    30    1
