@<TRIPOS>MOLECULE
*****
 50 53 0 0 0
SMALL
GASTEIGER

@<TRIPOS>ATOM
     1 C         0.344322   0.353462   -2.127748 C.3        1 UNL1     0.1889
     2 C         -0.594834   0.182977   -0.903468 C.3        1 UNL1     0.1342
     3 C         -1.64159   -0.932233   -1.048635 C.3        1 UNL1     0.1174
     4 C         -2.151621   -1.084324   -2.483854 C.3        1 UNL1     0.1456
     5 C         -1.010987   -1.091741   -3.517907 C.3        1 UNL1     0.2326
     6 O         -0.238255   0.100452   -3.397781 O.3        1 UNL1     -0.3076
     7 O         -0.213218   -2.289092   -3.482781 O.3        1 UNL1     -0.4605
     8 C         0.247224   -2.674414   -2.236567 C.ar        1 UNL1     0.1310
     9 C         -0.543652   -3.191007   -1.204604 C.ar        1 UNL1     0.0226
     10 C         0.020523   -3.569498   0.019469 C.ar        1 UNL1     0.1343
     11 C         1.394147   -3.462699   0.232993 C.ar        1 UNL1     0.1007
     12 C         2.188413   -2.909976   -0.775185 C.ar        1 UNL1     0.1389
     13 C         1.620518   -2.527018   -2.004929 C.ar        1 UNL1     0.0229
     14 C         2.05435   -3.925535   1.475598 C.2        1 UNL1     0.1740
     15 C         3.554502   -3.941463   1.446604 C.3        1 UNL1     0.0520
     16 C         4.035669   -2.691976   0.721886 C.3        1 UNL1     0.1322
     17 O         3.533374   -2.659142   -0.632253 O.3        1 UNL1     -0.4828
     18 C         3.816695   -1.399028   1.511229 C.ar        1 UNL1     -0.0067
     19 C         4.830438   -0.419142   1.530281 C.ar        1 UNL1     -0.0516
     20 C         4.681951   0.753534   2.280444 C.ar        1 UNL1     -0.0198
     21 C         3.530179   0.954349   3.019986 C.ar        1 UNL1     0.1169
     22 C         2.500099   0.023148   2.994717 C.ar        1 UNL1     -0.0198
     23 C         2.640567   -1.141108   2.229974 C.ar        1 UNL1     -0.0516
     24 O         3.437103   2.090854   3.768379 O.3        1 UNL1     -0.5068
     25 O         1.43925   -4.34982   2.450339 O.2        1 UNL1     -0.2917
     26 O         -0.805986   -4.065169   0.985273 O.3        1 UNL1     -0.5058
     27 O         1.58995   -0.309705   -1.981433 O.3        1 UNL1     -0.3648
     28 O         -1.30862   1.416737   -0.700856 O.3        1 UNL1     -0.3841
     29 O         -1.154492   -2.159201   -0.501445 O.3        1 UNL1     -0.3863
     30 O         -3.045863   0.008401   -2.787123 O.3        1 UNL1     -0.3829
     31 H         0.608167   1.415685   -2.174097 H        1 UNL1     0.0937
     32 H         0.0   -0.0   0.0 H        1 UNL1     0.0671
     33 H         -2.508639   -0.66088   -0.43032 H        1 UNL1     0.0649
     34 H         -2.731683   -2.00896   -2.578604 H        1 UNL1     0.0683
     35 H         -1.529142   -1.04003   -4.483681 H        1 UNL1     0.1085
     36 H         -1.609139   -3.350949   -1.328197 H        1 UNL1     0.0691
     37 H         2.260344   -2.09831   -2.773255 H        1 UNL1     0.0691
     38 H         3.865919   -4.848978   0.918435 H        1 UNL1     0.0385
     39 H         3.93278   -3.996271   2.473093 H        1 UNL1     0.0385
     40 H         5.124485   -2.782483   0.608715 H        1 UNL1     0.0789
     41 H         5.747841   -0.557313   0.965541 H        1 UNL1     0.0623
     42 H         5.475838   1.496163   2.296492 H        1 UNL1     0.0654
     43 H         1.58761   0.177371   3.55818 H        1 UNL1     0.0654
     44 H         1.811478   -1.84213   2.224968 H        1 UNL1     0.0623
     45 H         4.142122   2.077153   4.43582 H        1 UNL1     0.2921
     46 H         -1.621051   -4.395366   0.575333 H        1 UNL1     0.2922
     47 H         1.730811   -0.923433   -2.715842 H        1 UNL1     0.2126
     48 H         -2.143697   1.342227   -1.201682 H        1 UNL1     0.2101
     49 H         -0.207072   -2.080508   -0.306515 H        1 UNL1     0.2100
     50 H         -2.524982   0.83792   -2.769948 H        1 UNL1     0.2102
@<TRIPOS>BOND
     1     1     2    1
     2     1     6    1
     3     2     3    1
     4     3     4    1
     5     3    29    1
     6     3    33    1
     7     4     5    1
     8     5     6    1
     9     5     7    1
    10     5    35    1
    11     7     8    1
    12     8     9   ar
    13     8    13   ar
    14     9    10   ar
    15     9    36    1
    16    10    11   ar
    17    10    26    1
    18    11    12   ar
    19    11    14    1
    20    12    13   ar
    21    12    17    1
    22    13    37    1
    23    14    15    1
    24    14    25    2
    25    15    16    1
    26    15    38    1
    27    15    39    1
    28    16    17    1
    29    16    18    1
    30    16    40    1
    31    18    19   ar
    32    18    23   ar
    33    19    20   ar
    34    19    41    1
    35    20    21   ar
    36    20    42    1
    37    21    22   ar
    38    21    24    1
    39    22    23   ar
    40    22    43    1
    41    23    44    1
    42    24    45    1
    43    26    46    1
    44    27    47    1
    45    28    48    1
    46    29    49    1
    47    30    50    1
    48     1    31    1
    49     1    27    1
    50     2    32    1
    51     2    28    1
    52     4    34    1
    53     4    30    1
