@<TRIPOS>MOLECULE
*****
 50 53 0 0 0
SMALL
GASTEIGER

@<TRIPOS>ATOM
     1 C         0.016275   -1.141095   1.862375 C.3        1 UNL1     0.1889
     2 C         -0.263315   -1.008901   0.341095 C.3        1 UNL1     0.1342
     3 C         -1.710192   -1.316536   -0.074085 C.3        1 UNL1     0.1174
     4 C         -2.347284   -2.423265   0.769944 C.3        1 UNL1     0.1456
     5 C         -2.10565   -2.228637   2.277954 C.3        1 UNL1     0.2326
     6 O         -0.706084   -2.15809   2.54084 O.3        1 UNL1     -0.3076
     7 O         -2.843037   -1.127469   2.839212 O.3        1 UNL1     -0.4605
     8 C         -3.240656   -1.27266   4.156157 C.ar        1 UNL1     0.1310
     9 C         -3.831203   -2.417068   4.702861 C.ar        1 UNL1     0.0226
     10 C         -4.184015   -2.473124   6.05648 C.ar        1 UNL1     0.1343
     11 C         -3.932787   -1.393707   6.902401 C.ar        1 UNL1     0.1007
     12 C         -3.38113   -0.23037   6.359165 C.ar        1 UNL1     0.1389
     13 C         -3.028895   -0.173296   4.99751 C.ar        1 UNL1     0.0229
     14 C         -4.20815   -1.429719   8.357404 C.2        1 UNL1     0.1740
     15 C         -3.672638   -0.272514   9.148387 C.3        1 UNL1     0.0520
     16 C         -3.884074   1.001352   8.341842 C.3        1 UNL1     0.1322
     17 O         -3.191099   0.927992   7.076348 O.3        1 UNL1     -0.4828
     18 C         -5.350076   1.428991   8.238454 C.ar        1 UNL1     -0.0067
     19 C         -5.881595   1.781568   6.98092 C.ar        1 UNL1     -0.0516
     20 C         -7.204683   2.222445   6.858328 C.ar        1 UNL1     -0.0198
     21 C         -8.002411   2.321901   7.98419 C.ar        1 UNL1     0.1169
     22 C         -7.517811   1.950096   9.231492 C.ar        1 UNL1     -0.0198
     23 C         -6.200458   1.491634   9.351701 C.ar        1 UNL1     -0.0516
     24 O         -9.273946   2.791189   7.831316 O.3        1 UNL1     -0.5068
     25 O         -4.764633   -2.370749   8.917113 O.2        1 UNL1     -0.2917
     26 O         -4.757542   -3.618203   6.527063 O.3        1 UNL1     -0.5058
     27 O         -0.041128   0.094502   2.557208 O.3        1 UNL1     -0.3648
     28 O         0.589396   -1.932074   -0.361287 O.3        1 UNL1     -0.3841
     29 O         -2.494163   -0.122106   -0.103366 O.3        1 UNL1     -0.3863
     30 O         -1.797322   -3.698141   0.372549 O.3        1 UNL1     -0.3829
     31 H         1.060047   -1.458356   1.962199 H        1 UNL1     0.0937
     32 H         0.0   0.0   0.0 H        1 UNL1     0.0671
     33 H         -1.69158   -1.678824   -1.111448 H        1 UNL1     0.0649
     34 H         -3.425297   -2.465645   0.578916 H        1 UNL1     0.0683
     35 H         -2.467778   -3.162192   2.726527 H        1 UNL1     0.1085
     36 H         -4.001262   -3.3094   4.110456 H        1 UNL1     0.0691
     37 H         -2.601913   0.744429   4.598811 H        1 UNL1     0.0691
     38 H         -2.607379   -0.456325   9.324356 H        1 UNL1     0.0385
     39 H         -4.178493   -0.236626   10.119263 H        1 UNL1     0.0385
     40 H         -3.381695   1.814393   8.883228 H        1 UNL1     0.0789
     41 H         -5.273017   1.720936   6.083364 H        1 UNL1     0.0623
     42 H         -7.599285   2.502752   5.884814 H        1 UNL1     0.0654
     43 H         -8.138589   2.009769   10.117485 H        1 UNL1     0.0654
     44 H         -5.858208   1.1996   10.339844 H        1 UNL1     0.0623
     45 H         -9.226732   3.702118   7.498606 H        1 UNL1     0.2921
     46 H         -4.233031   -3.962173   7.267323 H        1 UNL1     0.2922
     47 H         0.554925   0.736984   2.147577 H        1 UNL1     0.2126
     48 H         1.508454   -1.649931   -0.189645 H        1 UNL1     0.2101
     49 H         -2.213062   0.439082   -0.843531 H        1 UNL1     0.2100
     50 H         -2.082916   -3.876103   -0.547493 H        1 UNL1     0.2102
@<TRIPOS>BOND
     1     1     2    1
     2     1     6    1
     3     2     3    1
     4     3     4    1
     5     3    29    1
     6     3    33    1
     7     4     5    1
     8     5     6    1
     9     5     7    1
    10     5    35    1
    11     7     8    1
    12     8     9   ar
    13     8    13   ar
    14     9    10   ar
    15     9    36    1
    16    10    11   ar
    17    10    26    1
    18    11    12   ar
    19    11    14    1
    20    12    13   ar
    21    12    17    1
    22    13    37    1
    23    14    15    1
    24    14    25    2
    25    15    16    1
    26    15    38    1
    27    15    39    1
    28    16    17    1
    29    16    18    1
    30    16    40    1
    31    18    19   ar
    32    18    23   ar
    33    19    20   ar
    34    19    41    1
    35    20    21   ar
    36    20    42    1
    37    21    22   ar
    38    21    24    1
    39    22    23   ar
    40    22    43    1
    41    23    44    1
    42    24    45    1
    43    26    46    1
    44    27    47    1
    45    28    48    1
    46    29    49    1
    47    30    50    1
    48     1    31    1
    49     1    27    1
    50     2    32    1
    51     2    28    1
    52     4    34    1
    53     4    30    1
