@<TRIPOS>MOLECULE
*****
 50 53 0 0 0
SMALL
GASTEIGER

@<TRIPOS>ATOM
     1 C         -0.330127   -1.327106   1.703118 C.3        1 UNL1     0.1889
     2 C         -0.461546   -0.975615   0.196757 C.3        1 UNL1     0.1342
     3 C         -1.902621   -0.964761   -0.335831 C.3        1 UNL1     0.1174
     4 C         -2.787742   -2.024189   0.325448 C.3        1 UNL1     0.1456
     5 C         -2.635443   -2.048048   1.857309 C.3        1 UNL1     0.2326
     6 O         -1.270213   -2.264664   2.206724 O.3        1 UNL1     -0.3076
     7 O         -3.211056   -0.900911   2.508514 O.3        1 UNL1     -0.4605
     8 C         -3.719852   -1.115636   3.7768 C.ar        1 UNL1     0.1310
     9 C         -4.849927   -1.883729   4.077241 C.ar        1 UNL1     0.0226
     10 C         -5.277381   -2.055991   5.399175 C.ar        1 UNL1     0.1343
     11 C         -4.570561   -1.483326   6.455727 C.ar        1 UNL1     0.1007
     12 C         -3.464354   -0.680391   6.165236 C.ar        1 UNL1     0.1389
     13 C         -3.036299   -0.505168   4.835764 C.ar        1 UNL1     0.0229
     14 C         -4.928681   -1.701743   7.87636 C.2        1 UNL1     0.1740
     15 C         -3.934711   -1.198156   8.881335 C.3        1 UNL1     0.0520
     16 C         -3.406626   0.147667   8.404005 C.3        1 UNL1     0.1322
     17 O         -2.760367   0.018222   7.118446 O.3        1 UNL1     -0.4828
     18 C         -4.435894   1.277561   8.485686 C.ar        1 UNL1     -0.0067
     19 C         -4.633545   2.116333   7.369617 C.ar        1 UNL1     -0.0516
     20 C         -5.532504   3.188047   7.426737 C.ar        1 UNL1     -0.0198
     21 C         -6.232808   3.435388   8.59388 C.ar        1 UNL1     0.1169
     22 C         -6.084572   2.606953   9.69867 C.ar        1 UNL1     -0.0198
     23 C         -5.199403   1.524098   9.635759 C.ar        1 UNL1     -0.0516
     24 O         -7.071211   4.510814   8.624523 O.3        1 UNL1     -0.5068
     25 O         -5.926492   -2.321931   8.234444 O.2        1 UNL1     -0.2917
     26 O         -6.387788   -2.816112   5.624555 O.3        1 UNL1     -0.5058
     27 O         -0.225404   -0.188054   2.542393 O.3        1 UNL1     -0.3648
     28 O         0.269468   -1.95411   -0.565393 O.3        1 UNL1     -0.3841
     29 O         -2.461121   0.348459   -0.260584 O.3        1 UNL1     -0.3863
     30 O         -2.439338   -3.325156   -0.195887 O.3        1 UNL1     -0.3829
     31 H         0.631017   -1.839066   1.822191 H        1 UNL1     0.0937
     32 H         0.0   0.0   0.0 H        1 UNL1     0.0671
     33 H         -1.865876   -1.205222   -1.407535 H        1 UNL1     0.0649
     34 H         -3.838124   -1.846953   0.069155 H        1 UNL1     0.0683
     35 H         -3.189281   -2.944104   2.164271 H        1 UNL1     0.1085
     36 H         -5.409654   -2.400692   3.305506 H        1 UNL1     0.0691
     37 H         -2.1728   0.12569   4.636059 H        1 UNL1     0.0691
     38 H         -3.129082   -1.936991   8.949235 H        1 UNL1     0.0385
     39 H         -4.418862   -1.128964   9.861431 H        1 UNL1     0.0385
     40 H         -2.599236   0.439993   9.088977 H        1 UNL1     0.0789
     41 H         -4.089119   1.948693   6.444875 H        1 UNL1     0.0623
     42 H         -5.667293   3.834832   6.563306 H        1 UNL1     0.0654
     43 H         -6.639232   2.782569   10.612684 H        1 UNL1     0.0654
     44 H         -5.11634   0.891264   10.514091 H        1 UNL1     0.0623
     45 H         -6.547612   5.312563   8.46402 H        1 UNL1     0.2921
     46 H         -6.166838   -3.539344   6.232444 H        1 UNL1     0.2922
     47 H         0.517096   0.36597   2.263807 H        1 UNL1     0.2126
     48 H         1.202335   -1.887744   -0.28417 H        1 UNL1     0.2101
     49 H         -2.022963   0.930648   -0.901573 H        1 UNL1     0.2100
     50 H         -2.672996   -3.341241   -1.147127 H        1 UNL1     0.2102
@<TRIPOS>BOND
     1     1     2    1
     2     1     6    1
     3     2     3    1
     4     3     4    1
     5     3    29    1
     6     3    33    1
     7     4     5    1
     8     5     6    1
     9     5     7    1
    10     5    35    1
    11     7     8    1
    12     8     9   ar
    13     8    13   ar
    14     9    10   ar
    15     9    36    1
    16    10    11   ar
    17    10    26    1
    18    11    12   ar
    19    11    14    1
    20    12    13   ar
    21    12    17    1
    22    13    37    1
    23    14    15    1
    24    14    25    2
    25    15    16    1
    26    15    38    1
    27    15    39    1
    28    16    17    1
    29    16    18    1
    30    16    40    1
    31    18    19   ar
    32    18    23   ar
    33    19    20   ar
    34    19    41    1
    35    20    21   ar
    36    20    42    1
    37    21    22   ar
    38    21    24    1
    39    22    23   ar
    40    22    43    1
    41    23    44    1
    42    24    45    1
    43    26    46    1
    44    27    47    1
    45    28    48    1
    46    29    49    1
    47    30    50    1
    48     1    31    1
    49     1    27    1
    50     2    32    1
    51     2    28    1
    52     4    34    1
    53     4    30    1
