@<TRIPOS>MOLECULE
*****
 50 53 0 0 0
SMALL
GASTEIGER

@<TRIPOS>ATOM
     1 C         -0.155553   0.906293   1.981222 C.3        1 UNL1     0.1889
     2 C         0.354766   -0.199667   1.018742 C.3        1 UNL1     0.1342
     3 C         -0.042749   -1.629412   1.416581 C.3        1 UNL1     0.1174
     4 C         -0.081045   -1.834568   2.933011 C.3        1 UNL1     0.1456
     5 C         -0.823326   -0.700624   3.663458 C.3        1 UNL1     0.2326
     6 O         -0.219041   0.553448   3.355218 O.3        1 UNL1     -0.3076
     7 O         -2.245728   -0.71239   3.44447 O.3        1 UNL1     -0.4605
     8 C         -3.023685   -0.244869   4.488374 C.ar        1 UNL1     0.1310
     9 C         -2.864085   -0.588657   5.835088 C.ar        1 UNL1     0.0226
     10 C         -3.694375   -0.047034   6.823605 C.ar        1 UNL1     0.1343
     11 C         -4.690086   0.870765   6.491875 C.ar        1 UNL1     0.1007
     12 C         -4.885744   1.190424   5.145651 C.ar        1 UNL1     0.1389
     13 C         -4.052476   0.643663   4.151595 C.ar        1 UNL1     0.0229
     14 C         -5.540556   1.537572   7.504902 C.2        1 UNL1     0.1740
     15 C         -6.401708   2.655732   6.995309 C.3        1 UNL1     0.0520
     16 C         -6.967454   2.249555   5.641459 C.3        1 UNL1     0.1322
     17 O         -5.904437   1.998117   4.696026 O.3        1 UNL1     -0.4828
     18 C         -8.020796   1.141916   5.721021 C.ar        1 UNL1     -0.0067
     19 C         -7.929985   0.036069   4.850923 C.ar        1 UNL1     -0.0516
     20 C         -8.902654   -0.970748   4.864947 C.ar        1 UNL1     -0.0198
     21 C         -9.972502   -0.879817   5.737291 C.ar        1 UNL1     0.1169
     22 C         -10.071719   0.179973   6.629389 C.ar        1 UNL1     -0.0198
     23 C         -9.08939   1.177513   6.628343 C.ar        1 UNL1     -0.0516
     24 O         -10.920218   -1.859889   5.696143 O.3        1 UNL1     -0.5068
     25 O         -5.503521   1.267404   8.702451 O.2        1 UNL1     -0.2917
     26 O         -3.487121   -0.424192   8.118357 O.3        1 UNL1     -0.5058
     27 O         -1.353867   1.527361   1.544067 O.3        1 UNL1     -0.3648
     28 O         1.793177   -0.148207   0.9866 O.3        1 UNL1     -0.3841
     29 O         -1.260354   -2.014237   0.775114 O.3        1 UNL1     -0.3863
     30 O         1.270959   -1.903667   3.436004 O.3        1 UNL1     -0.3829
     31 H         0.588808   1.709681   1.957299 H        1 UNL1     0.0937
     32 H         0.0   0.0   0.0 H        1 UNL1     0.0671
     33 H         0.722978   -2.312253   1.02274 H        1 UNL1     0.0649
     34 H         -0.560129   -2.791224   3.168996 H        1 UNL1     0.0683
     35 H         -0.627143   -0.896864   4.725004 H        1 UNL1     0.1085
     36 H         -2.072822   -1.25337   6.163995 H        1 UNL1     0.0691
     37 H         -4.226192   0.907686   3.11063 H        1 UNL1     0.0691
     38 H         -5.770601   3.546623   6.90845 H        1 UNL1     0.0385
     39 H         -7.18926   2.864513   7.727395 H        1 UNL1     0.0385
     40 H         -7.49481   3.123461   5.235622 H        1 UNL1     0.0789
     41 H         -7.104808   -0.053865   4.150462 H        1 UNL1     0.0623
     42 H         -8.827806   -1.812425   4.18085 H        1 UNL1     0.0654
     43 H         -10.89736   0.253299   7.327136 H        1 UNL1     0.0654
     44 H         -9.192978   1.985544   7.346118 H        1 UNL1     0.0623
     45 H         -11.319029   -1.8639   4.810902 H        1 UNL1     0.2921
     46 H         -3.331486   0.36308   8.663694 H        1 UNL1     0.2922
     47 H         -1.239928   1.884223   0.652144 H        1 UNL1     0.2126
     48 H         2.033758   0.727368   0.627124 H        1 UNL1     0.2101
     49 H         -1.109557   -2.130663   -0.176464 H        1 UNL1     0.2100
     50 H         1.68605   -2.714109   3.074624 H        1 UNL1     0.2102
@<TRIPOS>BOND
     1     1     2    1
     2     1     6    1
     3     2     3    1
     4     3     4    1
     5     3    29    1
     6     3    33    1
     7     4     5    1
     8     5     6    1
     9     5     7    1
    10     5    35    1
    11     7     8    1
    12     8     9   ar
    13     8    13   ar
    14     9    10   ar
    15     9    36    1
    16    10    11   ar
    17    10    26    1
    18    11    12   ar
    19    11    14    1
    20    12    13   ar
    21    12    17    1
    22    13    37    1
    23    14    15    1
    24    14    25    2
    25    15    16    1
    26    15    38    1
    27    15    39    1
    28    16    17    1
    29    16    18    1
    30    16    40    1
    31    18    19   ar
    32    18    23   ar
    33    19    20   ar
    34    19    41    1
    35    20    21   ar
    36    20    42    1
    37    21    22   ar
    38    21    24    1
    39    22    23   ar
    40    22    43    1
    41    23    44    1
    42    24    45    1
    43    26    46    1
    44    27    47    1
    45    28    48    1
    46    29    49    1
    47    30    50    1
    48     1    31    1
    49     1    27    1
    50     2    32    1
    51     2    28    1
    52     4    34    1
    53     4    30    1
