@<TRIPOS>MOLECULE
*****
 50 53 0 0 0
SMALL
GASTEIGER

@<TRIPOS>ATOM
     1 C         0.324393   -1.211799   1.788048 C.3        1 UNL1     0.1889
     2 C         0.664152   -0.809358   0.327725 C.3        1 UNL1     0.1342
     3 C         0.591137   -1.959785   -0.687978 C.3        1 UNL1     0.1174
     4 C         1.032034   -3.301534   -0.097694 C.3        1 UNL1     0.1456
     5 C         0.400263   -3.576793   1.279064 C.3        1 UNL1     0.2326
     6 O         0.718225   -2.518544   2.180107 O.3        1 UNL1     -0.3076
     7 O         -1.008936   -3.862352   1.216329 O.3        1 UNL1     -0.4605
     8 C         -1.487378   -4.762099   2.151784 C.ar        1 UNL1     0.1310
     9 C         -1.902   -4.439386   3.448412 C.ar        1 UNL1     0.0226
     10 C         -2.388835   -5.422353   4.31828 C.ar        1 UNL1     0.1343
     11 C         -2.49527   -6.749358   3.90407 C.ar        1 UNL1     0.1007
     12 C         -2.04599   -7.090779   2.625648 C.ar        1 UNL1     0.1389
     13 C         -1.554052   -6.102671   1.752108 C.ar        1 UNL1     0.0229
     14 C         -3.080365   -7.813336   4.752462 C.2        1 UNL1     0.1740
     15 C         -3.321688   -9.128106   4.070778 C.3        1 UNL1     0.0520
     16 C         -2.142986   -9.417785   3.1517 C.3        1 UNL1     0.1322
     17 O         -2.004156   -8.382289   2.15393 O.3        1 UNL1     -0.4828
     18 C         -0.849993   -9.758406   3.896595 C.ar        1 UNL1     -0.0067
     19 C         -0.921076   -10.276683   5.206003 C.ar        1 UNL1     -0.0516
     20 C         0.242806   -10.554277   5.932833 C.ar        1 UNL1     -0.0198
     21 C         1.48095   -10.311589   5.365444 C.ar        1 UNL1     0.1169
     22 C         1.583642   -9.833104   4.065696 C.ar        1 UNL1     -0.0198
     23 C         0.420081   -9.572814   3.331916 C.ar        1 UNL1     -0.0516
     24 O         2.591839   -10.558457   6.117363 O.3        1 UNL1     -0.5068
     25 O         -3.428972   -7.634712   5.916528 O.2        1 UNL1     -0.2917
     26 O         -2.775909   -5.042023   5.570122 O.3        1 UNL1     -0.5058
     27 O         -1.019449   -0.93858   2.151679 O.3        1 UNL1     -0.3648
     28 O         2.008741   -0.295689   0.297243 O.3        1 UNL1     -0.3841
     29 O         -0.701627   -2.019819   -1.294023 O.3        1 UNL1     -0.3863
     30 O         2.469478   -3.308377   0.041576 O.3        1 UNL1     -0.3829
     31 H         0.917619   -0.559658   2.438336 H        1 UNL1     0.0937
     32 H         0.0   0.0   -0.0 H        1 UNL1     0.0671
     33 H         1.286792   -1.728858   -1.506792 H        1 UNL1     0.0649
     34 H         0.772597   -4.115318   -0.783879 H        1 UNL1     0.0683
     35 H         0.926665   -4.470143   1.637818 H        1 UNL1     0.1085
     36 H         -1.89659   -3.417324   3.811014 H        1 UNL1     0.0691
     37 H         -1.209471   -6.394554   0.76238 H        1 UNL1     0.0691
     38 H         -4.253607   -9.040205   3.502159 H        1 UNL1     0.0385
     39 H         -3.456122   -9.906505   4.829594 H        1 UNL1     0.0385
     40 H         -2.39408   -10.320097   2.577849 H        1 UNL1     0.0789
     41 H         -1.880973   -10.467297   5.677082 H        1 UNL1     0.0623
     42 H         0.174755   -10.942497   6.946078 H        1 UNL1     0.0654
     43 H         2.54833   -9.653683   3.606245 H        1 UNL1     0.0654
     44 H         0.537675   -9.209648   2.315488 H        1 UNL1     0.0623
     45 H         3.275499   -10.935198   5.539962 H        1 UNL1     0.2921
     46 H         -3.261755   -4.203792   5.517833 H        1 UNL1     0.2922
     47 H         -1.586097   -1.690262   1.928645 H        1 UNL1     0.2126
     48 H         1.9519   0.650862   0.53079 H        1 UNL1     0.2101
     49 H         -0.623391   -1.88725   -2.252198 H        1 UNL1     0.2100
     50 H         2.732685   -2.479306   0.492216 H        1 UNL1     0.2102
@<TRIPOS>BOND
     1     1     2    1
     2     1     6    1
     3     2     3    1
     4     3     4    1
     5     3    29    1
     6     3    33    1
     7     4     5    1
     8     5     6    1
     9     5     7    1
    10     5    35    1
    11     7     8    1
    12     8     9   ar
    13     8    13   ar
    14     9    10   ar
    15     9    36    1
    16    10    11   ar
    17    10    26    1
    18    11    12   ar
    19    11    14    1
    20    12    13   ar
    21    12    17    1
    22    13    37    1
    23    14    15    1
    24    14    25    2
    25    15    16    1
    26    15    38    1
    27    15    39    1
    28    16    17    1
    29    16    18    1
    30    16    40    1
    31    18    19   ar
    32    18    23   ar
    33    19    20   ar
    34    19    41    1
    35    20    21   ar
    36    20    42    1
    37    21    22   ar
    38    21    24    1
    39    22    23   ar
    40    22    43    1
    41    23    44    1
    42    24    45    1
    43    26    46    1
    44    27    47    1
    45    28    48    1
    46    29    49    1
    47    30    50    1
    48     1    31    1
    49     1    27    1
    50     2    32    1
    51     2    28    1
    52     4    34    1
    53     4    30    1
