@<TRIPOS>MOLECULE
*****
 50 53 0 0 0
SMALL
GASTEIGER

@<TRIPOS>ATOM
     1 C         1.844146   -0.554133   1.030954 C.3        1 UNL1     0.1889
     2 C         0.948266   -0.498822   -0.235648 C.3        1 UNL1     0.1342
     3 C         0.651065   -1.865711   -0.871062 C.3        1 UNL1     0.1174
     4 C         1.824415   -2.841876   -0.754996 C.3        1 UNL1     0.1456
     5 C         2.427825   -2.873728   0.661071 C.3        1 UNL1     0.2326
     6 O         2.842445   -1.563917   1.042325 O.3        1 UNL1     -0.3076
     7 O         1.573877   -3.502575   1.634028 O.3        1 UNL1     -0.4605
     8 C         1.16767   -2.705703   2.689261 C.ar        1 UNL1     0.1310
     9 C         -0.138644   -2.255485   2.908692 C.ar        1 UNL1     0.0226
     10 C         -0.454406   -1.464078   4.019489 C.ar        1 UNL1     0.1343
     11 C         0.52483   -1.123174   4.951541 C.ar        1 UNL1     0.1007
     12 C         1.840985   -1.532511   4.721406 C.ar        1 UNL1     0.1389
     13 C         2.158735   -2.326043   3.603026 C.ar        1 UNL1     0.0229
     14 C         0.23029   -0.360149   6.186528 C.2        1 UNL1     0.1740
     15 C         1.351074   -0.276138   7.180679 C.3        1 UNL1     0.0520
     16 C         2.653871   -0.066074   6.42137 C.3        1 UNL1     0.1322
     17 O         2.90204   -1.163622   5.515352 O.3        1 UNL1     -0.4828
     18 C         2.780599   1.321146   5.787109 C.ar        1 UNL1     -0.0067
     19 C         3.428815   2.351445   6.498807 C.ar        1 UNL1     -0.0516
     20 C         3.520262   3.64366   5.967976 C.ar        1 UNL1     -0.0198
     21 C         2.962363   3.919514   4.732467 C.ar        1 UNL1     0.1169
     22 C         2.346974   2.917905   3.99293 C.ar        1 UNL1     -0.0198
     23 C         2.271584   1.621216   4.515396 C.ar        1 UNL1     -0.0516
     24 O         3.037821   5.198459   4.264487 O.3        1 UNL1     -0.5068
     25 O         -0.873836   0.113559   6.441463 O.2        1 UNL1     -0.2917
     26 O         -1.747246   -1.056755   4.175178 O.3        1 UNL1     -0.5058
     27 O         1.109588   -0.530165   2.244476 O.3        1 UNL1     -0.3648
     28 O         1.614205   0.30049   -1.230802 O.3        1 UNL1     -0.3841
     29 O         -0.57063   -2.405982   -0.363422 O.3        1 UNL1     -0.3863
     30 O         2.855329   -2.456774   -1.690198 O.3        1 UNL1     -0.3829
     31 H         2.421386   0.376794   1.046729 H        1 UNL1     0.0937
     32 H         -0.0   0.0   0.0 H        1 UNL1     0.0671
     33 H         0.475726   -1.705706   -1.944083 H        1 UNL1     0.0649
     34 H         1.500306   -3.850927   -1.03279 H        1 UNL1     0.0683
     35 H         3.337944   -3.475906   0.547304 H        1 UNL1     0.1085
     36 H         -0.955321   -2.53271   2.251191 H        1 UNL1     0.0691
     37 H         3.191161   -2.630824   3.44587 H        1 UNL1     0.0691
     38 H         1.367862   -1.216962   7.741122 H        1 UNL1     0.0385
     39 H         1.146239   0.537702   7.884586 H        1 UNL1     0.0385
     40 H         3.469299   -0.125819   7.154873 H        1 UNL1     0.0789
     41 H         3.866816   2.162641   7.474593 H        1 UNL1     0.0623
     42 H         4.012198   4.432453   6.531727 H        1 UNL1     0.0654
     43 H         1.919968   3.119445   3.017759 H        1 UNL1     0.0654
     44 H         1.793031   0.860839   3.905757 H        1 UNL1     0.0623
     45 H         2.743836   5.20429   3.339146 H        1 UNL1     0.2921
     46 H         -2.13985   -1.510619   4.937596 H        1 UNL1     0.2922
     47 H         1.484812   0.124263   2.850108 H        1 UNL1     0.2126
     48 H         2.334339   0.774909   -0.772472 H        1 UNL1     0.2101
     49 H         -0.438074   -2.727249   0.542674 H        1 UNL1     0.2100
     50 H         2.466165   -2.467401   -2.58917 H        1 UNL1     0.2102
@<TRIPOS>BOND
     1     1     2    1
     2     1     6    1
     3     2     3    1
     4     3     4    1
     5     3    29    1
     6     3    33    1
     7     4     5    1
     8     5     6    1
     9     5     7    1
    10     5    35    1
    11     7     8    1
    12     8     9   ar
    13     8    13   ar
    14     9    10   ar
    15     9    36    1
    16    10    11   ar
    17    10    26    1
    18    11    12   ar
    19    11    14    1
    20    12    13   ar
    21    12    17    1
    22    13    37    1
    23    14    15    1
    24    14    25    2
    25    15    16    1
    26    15    38    1
    27    15    39    1
    28    16    17    1
    29    16    18    1
    30    16    40    1
    31    18    19   ar
    32    18    23   ar
    33    19    20   ar
    34    19    41    1
    35    20    21   ar
    36    20    42    1
    37    21    22   ar
    38    21    24    1
    39    22    23   ar
    40    22    43    1
    41    23    44    1
    42    24    45    1
    43    26    46    1
    44    27    47    1
    45    28    48    1
    46    29    49    1
    47    30    50    1
    48     1    31    1
    49     1    27    1
    50     2    32    1
    51     2    28    1
    52     4    34    1
    53     4    30    1
