@<TRIPOS>MOLECULE
*****
 50 53 0 0 0
SMALL
GASTEIGER

@<TRIPOS>ATOM
     1 C         -0.320799   -1.312255   1.716356 C.3        1 UNL1     0.1889
     2 C         -0.472725   -0.967381   0.210395 C.3        1 UNL1     0.1342
     3 C         -1.922394   -0.937739   -0.297589 C.3        1 UNL1     0.1174
     4 C         -2.81188   -1.979871   0.384975 C.3        1 UNL1     0.1456
     5 C         -2.633715   -1.997326   1.91413 C.3        1 UNL1     0.2326
     6 O         -1.266106   -2.232596   2.241487 O.3        1 UNL1     -0.3076
     7 O         -3.18076   -0.837924   2.568232 O.3        1 UNL1     -0.4605
     8 C         -3.671336   -1.03781   3.846085 C.ar        1 UNL1     0.1310
     9 C         -4.496252   -2.096515   4.241002 C.ar        1 UNL1     0.0226
     10 C         -4.928159   -2.221836   5.566767 C.ar        1 UNL1     0.1343
     11 C         -4.525773   -1.303776   6.535834 C.ar        1 UNL1     0.1007
     12 C         -3.735621   -0.219445   6.145104 C.ar        1 UNL1     0.1389
     13 C         -3.303641   -0.092195   4.811451 C.ar        1 UNL1     0.0229
     14 C         -4.883612   -1.43489   7.967237 C.2        1 UNL1     0.1740
     15 C         -4.184772   -0.490198   8.900366 C.3        1 UNL1     0.0520
     16 C         -4.107395   0.876361   8.233667 C.3        1 UNL1     0.1322
     17 O         -3.371211   0.800666   6.992952 O.3        1 UNL1     -0.4828
     18 C         -5.458626   1.587386   8.127166 C.ar        1 UNL1     -0.0067
     19 C         -5.824414   2.200949   6.911455 C.ar        1 UNL1     -0.0516
     20 C         -7.031725   2.899988   6.79438 C.ar        1 UNL1     -0.0198
     21 C         -7.876585   2.998712   7.885386 C.ar        1 UNL1     0.1169
     22 C         -7.559589   2.376834   9.086061 C.ar        1 UNL1     -0.0198
     23 C         -6.360958   1.662119   9.197964 C.ar        1 UNL1     -0.0516
     24 O         -9.025958   3.71954   7.744852 O.3        1 UNL1     -0.5068
     25 O         -5.637571   -2.303049   8.398896 O.2        1 UNL1     -0.2917
     26 O         -5.732271   -3.276679   5.886605 O.3        1 UNL1     -0.5058
     27 O         -0.184583   -0.170168   2.54694 O.3        1 UNL1     -0.3648
     28 O         0.230314   -1.961147   -0.558287 O.3        1 UNL1     -0.3841
     29 O         -2.459708   0.384192   -0.22063 O.3        1 UNL1     -0.3863
     30 O         -2.492072   -3.288905   -0.134488 O.3        1 UNL1     -0.3829
     31 H         0.634436   -1.838023   1.822056 H        1 UNL1     0.0937
     32 H         0.0   0.0   0.0 H        1 UNL1     0.0671
     33 H         -1.90765   -1.184816   -1.368316 H        1 UNL1     0.0649
     34 H         -3.863718   -1.788212   0.145589 H        1 UNL1     0.0683
     35 H         -3.195622   -2.883136   2.235814 H        1 UNL1     0.1085
     36 H         -4.797957   -2.873681   3.547383 H        1 UNL1     0.0691
     37 H         -2.69002   0.761729   4.532568 H        1 UNL1     0.0691
     38 H         -3.184637   -0.893338   9.092034 H        1 UNL1     0.0385
     39 H         -4.728116   -0.457006   9.850868 H        1 UNL1     0.0385
     40 H         -3.491917   1.517202   8.879445 H        1 UNL1     0.0789
     41 H         -5.174299   2.145639   6.043157 H        1 UNL1     0.0623
     42 H         -7.297007   3.378894   5.855079 H        1 UNL1     0.0654
     43 H         -8.221008   2.435105   9.942238 H        1 UNL1     0.0654
     44 H         -6.150206   1.179899   10.147644 H        1 UNL1     0.0623
     45 H         -8.788986   4.633938   7.520271 H        1 UNL1     0.2921
     46 H         -5.323282   -3.790306   6.600977 H        1 UNL1     0.2922
     47 H         0.561174   0.371049   2.252338 H        1 UNL1     0.2126
     48 H         1.168877   -1.906831   -0.293934 H        1 UNL1     0.2101
     49 H         -2.023958   0.956007   -0.872507 H        1 UNL1     0.2100
     50 H         -2.783639   -3.321868   -1.069162 H        1 UNL1     0.2102
@<TRIPOS>BOND
     1     1     2    1
     2     1     6    1
     3     2     3    1
     4     3     4    1
     5     3    29    1
     6     3    33    1
     7     4     5    1
     8     5     6    1
     9     5     7    1
    10     5    35    1
    11     7     8    1
    12     8     9   ar
    13     8    13   ar
    14     9    10   ar
    15     9    36    1
    16    10    11   ar
    17    10    26    1
    18    11    12   ar
    19    11    14    1
    20    12    13   ar
    21    12    17    1
    22    13    37    1
    23    14    15    1
    24    14    25    2
    25    15    16    1
    26    15    38    1
    27    15    39    1
    28    16    17    1
    29    16    18    1
    30    16    40    1
    31    18    19   ar
    32    18    23   ar
    33    19    20   ar
    34    19    41    1
    35    20    21   ar
    36    20    42    1
    37    21    22   ar
    38    21    24    1
    39    22    23   ar
    40    22    43    1
    41    23    44    1
    42    24    45    1
    43    26    46    1
    44    27    47    1
    45    28    48    1
    46    29    49    1
    47    30    50    1
    48     1    31    1
    49     1    27    1
    50     2    32    1
    51     2    28    1
    52     4    34    1
    53     4    30    1
