@<TRIPOS>MOLECULE
*****
 50 53 0 0 0
SMALL
GASTEIGER

@<TRIPOS>ATOM
     1 C         1.899496   1.0754   -0.078944 C.3        1 UNL1     0.1889
     2 C         0.981511   -0.111439   -0.477262 C.3        1 UNL1     0.1342
     3 C         1.546969   -1.500079   -0.141999 C.3        1 UNL1     0.1174
     4 C         3.068839   -1.57263   -0.289531 C.3        1 UNL1     0.1456
     5 C         3.783153   -0.377403   0.367393 C.3        1 UNL1     0.2326
     6 O         3.296372   0.84342   -0.185333 O.3        1 UNL1     -0.3076
     7 O         3.74049   -0.404071   1.805722 O.3        1 UNL1     -0.4605
     8 C         3.384594   -1.611467   2.379361 C.ar        1 UNL1     0.1310
     9 C         3.55829   -1.951631   3.72525 C.ar        1 UNL1     0.0226
     10 C         3.148416   -3.197186   4.215657 C.ar        1 UNL1     0.1343
     11 C         2.532614   -4.124596   3.376288 C.ar        1 UNL1     0.1007
     12 C         2.390926   -3.812368   2.021585 C.ar        1 UNL1     0.1389
     13 C         2.805535   -2.560937   1.528176 C.ar        1 UNL1     0.0229
     14 C         2.004513   -5.421571   3.859112 C.2        1 UNL1     0.1740
     15 C         1.17834   -6.193836   2.87291 C.3        1 UNL1     0.0520
     16 C         1.828268   -6.073758   1.501366 C.3        1 UNL1     0.1322
     17 O         1.897549   -4.691835   1.085965 O.3        1 UNL1     -0.4828
     18 C         3.14662   -6.841019   1.374936 C.ar        1 UNL1     -0.0067
     19 C         3.859658   -6.797049   0.159265 C.ar        1 UNL1     -0.0516
     20 C         5.043995   -7.525154   -0.005574 C.ar        1 UNL1     -0.0198
     21 C         5.520732   -8.30505   1.032844 C.ar        1 UNL1     0.1169
     22 C         4.858774   -8.342331   2.253196 C.ar        1 UNL1     -0.0198
     23 C         3.68432   -7.599784   2.424482 C.ar        1 UNL1     -0.0516
     24 O         6.656819   -9.030023   0.822794 O.3        1 UNL1     -0.5068
     25 O         2.150062   -5.824514   5.010171 O.2        1 UNL1     -0.2917
     26 O         3.347419   -3.467375   5.538147 O.3        1 UNL1     -0.5058
     27 O         1.559095   1.65958   1.168312 O.3        1 UNL1     -0.3648
     28 O         0.770474   -0.067085   -1.900709 O.3        1 UNL1     -0.3841
     29 O         1.09396   -1.935679   1.141422 O.3        1 UNL1     -0.3863
     30 O         3.407884   -1.601649   -1.693061 O.3        1 UNL1     -0.3829
     31 H         1.71584   1.871539   -0.808679 H        1 UNL1     0.0937
     32 H         0.0   0.0   0.0 H        1 UNL1     0.0671
     33 H         1.123593   -2.216738   -0.859544 H        1 UNL1     0.0649
     34 H         3.443214   -2.503796   0.149985 H        1 UNL1     0.0683
     35 H         4.825964   -0.481255   0.042372 H        1 UNL1     0.1085
     36 H         3.979401   -1.253263   4.440141 H        1 UNL1     0.0691
     37 H         2.685134   -2.342714   0.469226 H        1 UNL1     0.0691
     38 H         0.172392   -5.760712   2.872564 H        1 UNL1     0.0385
     39 H         1.102462   -7.234722   3.20544 H        1 UNL1     0.0385
     40 H         1.147923   -6.543959   0.778482 H        1 UNL1     0.0789
     41 H         3.501414   -6.199636   -0.674047 H        1 UNL1     0.0623
     42 H         5.578365   -7.492421   -0.951824 H        1 UNL1     0.0654
     43 H         5.231439   -8.937901   3.078016 H        1 UNL1     0.0654
     44 H         3.198832   -7.643984   3.394634 H        1 UNL1     0.0623
     45 H         7.386104   -8.602581   1.300447 H        1 UNL1     0.2921
     46 H         4.288791   -3.367184   5.750731 H        1 UNL1     0.2922
     47 H         1.045865   1.03618   1.701067 H        1 UNL1     0.2126
     48 H         1.635409   -0.24595   -2.317396 H        1 UNL1     0.2101
     49 H         0.580216   -2.753892   1.049834 H        1 UNL1     0.2100
     50 H         2.78285   -1.014313   -2.166433 H        1 UNL1     0.2102
@<TRIPOS>BOND
     1     1     2    1
     2     1     6    1
     3     2     3    1
     4     3     4    1
     5     3    29    1
     6     3    33    1
     7     4     5    1
     8     5     6    1
     9     5     7    1
    10     5    35    1
    11     7     8    1
    12     8     9   ar
    13     8    13   ar
    14     9    10   ar
    15     9    36    1
    16    10    11   ar
    17    10    26    1
    18    11    12   ar
    19    11    14    1
    20    12    13   ar
    21    12    17    1
    22    13    37    1
    23    14    15    1
    24    14    25    2
    25    15    16    1
    26    15    38    1
    27    15    39    1
    28    16    17    1
    29    16    18    1
    30    16    40    1
    31    18    19   ar
    32    18    23   ar
    33    19    20   ar
    34    19    41    1
    35    20    21   ar
    36    20    42    1
    37    21    22   ar
    38    21    24    1
    39    22    23   ar
    40    22    43    1
    41    23    44    1
    42    24    45    1
    43    26    46    1
    44    27    47    1
    45    28    48    1
    46    29    49    1
    47    30    50    1
    48     1    31    1
    49     1    27    1
    50     2    32    1
    51     2    28    1
    52     4    34    1
    53     4    30    1
