@<TRIPOS>MOLECULE
*****
 50 53 0 0 0
SMALL
GASTEIGER

@<TRIPOS>ATOM
     1 C         -2.134014   -0.464211   -0.036025 C.3        1 UNL1     0.1889
     2 C         -0.837163   -0.045636   0.707557 C.3        1 UNL1     0.1342
     3 C         -0.450253   -0.955381   1.883622 C.3        1 UNL1     0.1174
     4 C         -1.666159   -1.508124   2.631395 C.3        1 UNL1     0.1456
     5 C         -2.744233   -2.058354   1.679888 C.3        1 UNL1     0.2326
     6 O         -3.15244   -1.041337   0.767796 O.3        1 UNL1     -0.3076
     7 O         -2.362175   -3.283137   1.027769 O.3        1 UNL1     -0.4605
     8 C         -2.964975   -3.534225   -0.191705 C.ar        1 UNL1     0.1310
     9 C         -2.535166   -4.480151   -1.128608 C.ar        1 UNL1     0.0226
     10 C         -3.22511   -4.672704   -2.331439 C.ar        1 UNL1     0.1343
     11 C         -4.376521   -3.939924   -2.616266 C.ar        1 UNL1     0.1007
     12 C         -4.792016   -2.96364   -1.706861 C.ar        1 UNL1     0.1389
     13 C         -4.096591   -2.768374   -0.498686 C.ar        1 UNL1     0.0229
     14 C         -5.191551   -4.161372   -3.833164 C.2        1 UNL1     0.1740
     15 C         -6.510561   -3.446951   -3.870081 C.3        1 UNL1     0.0520
     16 C         -6.317213   -2.048597   -3.299835 C.3        1 UNL1     0.1322
     17 O         -5.847721   -2.111768   -1.935044 O.3        1 UNL1     -0.4828
     18 C         -5.506741   -1.119799   -4.207135 C.ar        1 UNL1     -0.0067
     19 C         -6.117365   -0.560655   -5.348499 C.ar        1 UNL1     -0.0516
     20 C         -5.391319   0.254615   -6.224943 C.ar        1 UNL1     -0.0198
     21 C         -4.055069   0.511728   -5.975635 C.ar        1 UNL1     0.1169
     22 C         -3.434687   0.002779   -4.842084 C.ar        1 UNL1     -0.0198
     23 C         -4.165385   -0.797448   -3.955646 C.ar        1 UNL1     -0.0516
     24 O         -3.370346   1.279098   -6.871569 O.3        1 UNL1     -0.5068
     25 O         -4.87002   -4.93581   -4.730576 O.2        1 UNL1     -0.2917
     26 O         -2.75329   -5.610304   -3.203148 O.3        1 UNL1     -0.5058
     27 O         -1.892919   -1.230098   -1.205673 O.3        1 UNL1     -0.3648
     28 O         -1.021848   1.281153   1.23503 O.3        1 UNL1     -0.3841
     29 O         0.450042   -1.979982   1.45725 O.3        1 UNL1     -0.3863
     30 O         -2.247458   -0.456849   3.43302 O.3        1 UNL1     -0.3829
     31 H         -2.593148   0.45836   -0.407692 H        1 UNL1     0.0937
     32 H         0.0   0.0   0.0 H        1 UNL1     0.0671
     33 H         0.117239   -0.349462   2.603716 H        1 UNL1     0.0649
     34 H         -1.353131   -2.30059   3.320171 H        1 UNL1     0.0683
     35 H         -3.599508   -2.259343   2.337146 H        1 UNL1     0.1085
     36 H         -1.679904   -5.120189   -0.941524 H        1 UNL1     0.0691
     37 H         -4.439788   -2.001174   0.192048 H        1 UNL1     0.0691
     38 H         -7.2176   -4.025532   -3.266037 H        1 UNL1     0.0385
     39 H         -6.878804   -3.426243   -4.901462 H        1 UNL1     0.0385
     40 H         -7.311887   -1.58834   -3.226976 H        1 UNL1     0.0789
     41 H         -7.162511   -0.754829   -5.571249 H        1 UNL1     0.0623
     42 H         -5.870315   0.670179   -7.108052 H        1 UNL1     0.0654
     43 H         -2.39276   0.210161   -4.629266 H        1 UNL1     0.0654
     44 H         -3.651666   -1.169622   -3.074496 H        1 UNL1     0.0623
     45 H         -3.878826   1.313036   -7.698015 H        1 UNL1     0.2921
     46 H         -3.365785   -5.69403   -3.950979 H        1 UNL1     0.2922
     47 H         -1.639956   -0.65148   -1.938524 H        1 UNL1     0.2126
     48 H         -0.171485   1.542961   1.637612 H        1 UNL1     0.2101
     49 H         -0.034777   -2.66133   0.964798 H        1 UNL1     0.2100
     50 H         -1.616831   -0.241513   4.15111 H        1 UNL1     0.2102
@<TRIPOS>BOND
     1     1     2    1
     2     1     6    1
     3     2     3    1
     4     3     4    1
     5     3    29    1
     6     3    33    1
     7     4     5    1
     8     5     6    1
     9     5     7    1
    10     5    35    1
    11     7     8    1
    12     8     9   ar
    13     8    13   ar
    14     9    10   ar
    15     9    36    1
    16    10    11   ar
    17    10    26    1
    18    11    12   ar
    19    11    14    1
    20    12    13   ar
    21    12    17    1
    22    13    37    1
    23    14    15    1
    24    14    25    2
    25    15    16    1
    26    15    38    1
    27    15    39    1
    28    16    17    1
    29    16    18    1
    30    16    40    1
    31    18    19   ar
    32    18    23   ar
    33    19    20   ar
    34    19    41    1
    35    20    21   ar
    36    20    42    1
    37    21    22   ar
    38    21    24    1
    39    22    23   ar
    40    22    43    1
    41    23    44    1
    42    24    45    1
    43    26    46    1
    44    27    47    1
    45    28    48    1
    46    29    49    1
    47    30    50    1
    48     1    31    1
    49     1    27    1
    50     2    32    1
    51     2    28    1
    52     4    34    1
    53     4    30    1
