@<TRIPOS>MOLECULE
*****
 50 53 0 0 0
SMALL
GASTEIGER

@<TRIPOS>ATOM
     1 C         0.326606   -0.617405   2.069527 C.3        1 UNL1     0.1889
     2 C         0.022066   -0.930989   0.579943 C.3        1 UNL1     0.1342
     3 C         -1.285679   -1.701219   0.341168 C.3        1 UNL1     0.1174
     4 C         -1.596644   -2.702765   1.456212 C.3        1 UNL1     0.1456
     5 C         -1.417855   -2.097098   2.860337 C.3        1 UNL1     0.2326
     6 O         -0.090832   -1.597237   3.008714 O.3        1 UNL1     -0.3076
     7 O         -2.428097   -1.13009   3.200376 O.3        1 UNL1     -0.4605
     8 C         -2.762962   -1.048786   4.540071 C.ar        1 UNL1     0.1310
     9 C         -3.010897   -2.139057   5.380986 C.ar        1 UNL1     0.0226
     10 C         -3.327168   -1.953728   6.732107 C.ar        1 UNL1     0.1343
     11 C         -3.379857   -0.673291   7.281238 C.ar        1 UNL1     0.1007
     12 C         -3.174511   0.42509   6.442086 C.ar        1 UNL1     0.1389
     13 C         -2.859119   0.238586   5.082978 C.ar        1 UNL1     0.0229
     14 C         -3.626705   -0.423754   8.720318 C.2        1 UNL1     0.1740
     15 C         -3.428026   0.991612   9.177281 C.3        1 UNL1     0.0520
     16 C         -3.987967   1.924749   8.112538 C.3        1 UNL1     0.1322
     17 O         -3.308538   1.731214   6.852383 O.3        1 UNL1     -0.4828
     18 C         -5.51559   1.906597   8.018931 C.ar        1 UNL1     -0.0067
     19 C         -6.130539   1.767281   6.757724 C.ar        1 UNL1     -0.0516
     20 C         -7.524548   1.794322   6.631355 C.ar        1 UNL1     -0.0198
     21 C         -8.312656   1.967056   7.755132 C.ar        1 UNL1     0.1169
     22 C         -7.737559   2.073427   9.01481 C.ar        1 UNL1     -0.0198
     23 C         -6.344225   2.027915   9.143671 C.ar        1 UNL1     -0.0516
     24 O         -9.665112   2.026299   7.588537 O.3        1 UNL1     -0.5068
     25 O         -3.898105   -1.312192   9.523751 O.2        1 UNL1     -0.2917
     26 O         -3.55897   -3.058737   7.498141 O.3        1 UNL1     -0.5058
     27 O         -0.066246   0.687421   2.464345 O.3        1 UNL1     -0.3648
     28 O         1.094695   -1.73479   0.054513 O.3        1 UNL1     -0.3841
     29 O         -2.365999   -0.800322   0.089326 O.3        1 UNL1     -0.3863
     30 O         -0.719328   -3.842676   1.327335 O.3        1 UNL1     -0.3829
     31 H         1.417309   -0.61311   2.171649 H        1 UNL1     0.0937
     32 H         -0.0   0.0   0.0 H        1 UNL1     0.0671
     33 H         -1.168492   -2.282204   -0.584275 H        1 UNL1     0.0649
     34 H         -2.622052   -3.073878   1.350308 H        1 UNL1     0.0683
     35 H         -1.511458   -2.95827   3.533761 H        1 UNL1     0.1085
     36 H         -2.930611   -3.161322   5.027928 H        1 UNL1     0.0691
     37 H         -2.704852   1.110192   4.450525 H        1 UNL1     0.0691
     38 H         -2.352568   1.14782   9.313353 H        1 UNL1     0.0385
     39 H         -3.918854   1.12797   10.146958 H        1 UNL1     0.0385
     40 H         -3.727246   2.949329   8.4105 H        1 UNL1     0.0789
     41 H         -5.533713   1.639644   5.859303 H        1 UNL1     0.0623
     42 H         -7.986422   1.697779   5.651883 H        1 UNL1     0.0654
     43 H         -8.345909   2.193942   9.903233 H        1 UNL1     0.0654
     44 H         -5.929358   2.103483   10.144181 H        1 UNL1     0.0623
     45 H         -9.870443   2.780624   7.012734 H        1 UNL1     0.2921
     46 H         -2.954864   -3.058577   8.257395 H        1 UNL1     0.2922
     47 H         0.34845   1.349099   1.89332 H        1 UNL1     0.2126
     48 H         1.907457   -1.198152   0.126408 H        1 UNL1     0.2101
     49 H         -2.244152   -0.371735   -0.7728 H        1 UNL1     0.2100
     50 H         -0.941364   -4.300932   0.490427 H        1 UNL1     0.2102
@<TRIPOS>BOND
     1     1     2    1
     2     1     6    1
     3     2     3    1
     4     3     4    1
     5     3    29    1
     6     3    33    1
     7     4     5    1
     8     5     6    1
     9     5     7    1
    10     5    35    1
    11     7     8    1
    12     8     9   ar
    13     8    13   ar
    14     9    10   ar
    15     9    36    1
    16    10    11   ar
    17    10    26    1
    18    11    12   ar
    19    11    14    1
    20    12    13   ar
    21    12    17    1
    22    13    37    1
    23    14    15    1
    24    14    25    2
    25    15    16    1
    26    15    38    1
    27    15    39    1
    28    16    17    1
    29    16    18    1
    30    16    40    1
    31    18    19   ar
    32    18    23   ar
    33    19    20   ar
    34    19    41    1
    35    20    21   ar
    36    20    42    1
    37    21    22   ar
    38    21    24    1
    39    22    23   ar
    40    22    43    1
    41    23    44    1
    42    24    45    1
    43    26    46    1
    44    27    47    1
    45    28    48    1
    46    29    49    1
    47    30    50    1
    48     1    31    1
    49     1    27    1
    50     2    32    1
    51     2    28    1
    52     4    34    1
    53     4    30    1
