@<TRIPOS>MOLECULE
*****
 50 53 0 0 0
SMALL
GASTEIGER

@<TRIPOS>ATOM
     1 C         -0.371539   -1.398254   1.636352 C.3        1 UNL1     0.1889
     2 C         -0.488237   -0.971162   0.14843 C.3        1 UNL1     0.1342
     3 C         -1.92664   -0.895798   -0.386157 C.3        1 UNL1     0.1174
     4 C         -2.842163   -1.961609   0.221282 C.3        1 UNL1     0.1456
     5 C         -2.695891   -2.063361   1.750535 C.3        1 UNL1     0.2326
     6 O         -1.338188   -2.3333   2.092066 O.3        1 UNL1     -0.3076
     7 O         -3.242782   -0.933835   2.455094 O.3        1 UNL1     -0.4605
     8 C         -3.772226   -1.197736   3.705523 C.ar        1 UNL1     0.1310
     9 C         -4.616186   -2.268723   4.018604 C.ar        1 UNL1     0.0226
     10 C         -5.087849   -2.461271   5.322583 C.ar        1 UNL1     0.1343
     11 C         -4.707418   -1.60027   6.351072 C.ar        1 UNL1     0.1007
     12 C         -3.89814   -0.50361   6.042546 C.ar        1 UNL1     0.1389
     13 C         -3.426157   -0.308713   4.7308 C.ar        1 UNL1     0.0229
     14 C         -5.108201   -1.804943   7.762326 C.2        1 UNL1     0.1740
     15 C         -4.430197   -0.918069   8.76498 C.3        1 UNL1     0.0520
     16 C         -4.323164   0.481609   8.175572 C.3        1 UNL1     0.1322
     17 O         -3.551348   0.466146   6.954453 O.3        1 UNL1     -0.4828
     18 C         -5.6654   1.209384   8.068478 C.ar        1 UNL1     -0.0067
     19 C         -5.687168   2.573045   7.710475 C.ar        1 UNL1     -0.0516
     20 C         -6.893687   3.280557   7.649626 C.ar        1 UNL1     -0.0198
     21 C         -8.081782   2.639109   7.950962 C.ar        1 UNL1     0.1169
     22 C         -8.096068   1.288508   8.274249 C.ar        1 UNL1     -0.0198
     23 C         -6.891593   0.576153   8.317205 C.ar        1 UNL1     -0.0516
     24 O         -9.232933   3.369969   7.917881 O.3        1 UNL1     -0.5068
     25 O         -5.880915   -2.688278   8.124427 O.2        1 UNL1     -0.2917
     26 O         -5.908776   -3.524551   5.561538 O.3        1 UNL1     -0.5058
     27 O         -0.239215   -0.304211   2.529855 O.3        1 UNL1     -0.3648
     28 O         0.218908   -1.931147   -0.658465 O.3        1 UNL1     -0.3841
     29 O         -2.449964   0.426853   -0.24883 O.3        1 UNL1     -0.3863
     30 O         -2.526977   -3.244862   -0.361478 O.3        1 UNL1     -0.3829
     31 H         0.575103   -1.94109   1.732672 H        1 UNL1     0.0937
     32 H         0.0   0.0   0.0 H        1 UNL1     0.0671
     33 H         -1.89263   -1.085236   -1.468135 H        1 UNL1     0.0649
     34 H         -3.886513   -1.743966   -0.028447 H        1 UNL1     0.0683
     35 H         -3.274635   -2.957908   2.01268 H        1 UNL1     0.1085
     36 H         -4.903054   -3.004748   3.275573 H        1 UNL1     0.0691
     37 H         -2.798319   0.553449   4.516348 H        1 UNL1     0.0691
     38 H         -3.439136   -1.339856   8.963524 H        1 UNL1     0.0385
     39 H         -5.001031   -0.931168   9.699729 H        1 UNL1     0.0385
     40 H         -3.722262   1.081277   8.87259 H        1 UNL1     0.0789
     41 H         -4.767184   3.101587   7.478259 H        1 UNL1     0.0623
     42 H         -6.896154   4.334777   7.383871 H        1 UNL1     0.0654
     43 H         -9.022361   0.772646   8.497359 H        1 UNL1     0.0654
     44 H         -6.941027   -0.480223   8.563113 H        1 UNL1     0.0623
     45 H         -9.189541   4.042321   8.617007 H        1 UNL1     0.2921
     46 H         -5.637449   -3.964655   6.382576 H        1 UNL1     0.2922
     47 H         0.506143   0.253957   2.267651 H        1 UNL1     0.2126
     48 H         1.17111   -1.779643   -0.503256 H        1 UNL1     0.2101
     49 H         -2.142945   0.981198   -0.983836 H        1 UNL1     0.2100
     50 H         -2.783908   -3.218147   -1.306457 H        1 UNL1     0.2102
@<TRIPOS>BOND
     1     1     2    1
     2     1     6    1
     3     2     3    1
     4     3     4    1
     5     3    29    1
     6     3    33    1
     7     4     5    1
     8     5     6    1
     9     5     7    1
    10     5    35    1
    11     7     8    1
    12     8     9   ar
    13     8    13   ar
    14     9    10   ar
    15     9    36    1
    16    10    11   ar
    17    10    26    1
    18    11    12   ar
    19    11    14    1
    20    12    13   ar
    21    12    17    1
    22    13    37    1
    23    14    15    1
    24    14    25    2
    25    15    16    1
    26    15    38    1
    27    15    39    1
    28    16    17    1
    29    16    18    1
    30    16    40    1
    31    18    19   ar
    32    18    23   ar
    33    19    20   ar
    34    19    41    1
    35    20    21   ar
    36    20    42    1
    37    21    22   ar
    38    21    24    1
    39    22    23   ar
    40    22    43    1
    41    23    44    1
    42    24    45    1
    43    26    46    1
    44    27    47    1
    45    28    48    1
    46    29    49    1
    47    30    50    1
    48     1    31    1
    49     1    27    1
    50     2    32    1
    51     2    28    1
    52     4    34    1
    53     4    30    1
