@<TRIPOS>MOLECULE
*****
 50 53 0 0 0
SMALL
GASTEIGER

@<TRIPOS>ATOM
     1 C         -0.319657   -1.358223   1.680432 C.3        1 UNL1     0.1889
     2 C         -0.466647   -0.975854   0.183059 C.3        1 UNL1     0.1342
     3 C         -1.913959   -0.94362   -0.331445 C.3        1 UNL1     0.1174
     4 C         -2.799142   -2.009341   0.319559 C.3        1 UNL1     0.1456
     5 C         -2.628433   -2.064815   1.848658 C.3        1 UNL1     0.2326
     6 O         -1.260773   -2.298554   2.176896 O.3        1 UNL1     -0.3076
     7 O         -3.18721   -0.926587   2.529486 O.3        1 UNL1     -0.4605
     8 C         -3.692891   -1.16514   3.794755 C.ar        1 UNL1     0.1310
     9 C         -4.51924   -2.237268   4.148294 C.ar        1 UNL1     0.0226
     10 C         -4.967086   -2.402524   5.464359 C.ar        1 UNL1     0.1343
     11 C         -4.57963   -1.512058   6.464754 C.ar        1 UNL1     0.1007
     12 C         -3.788175   -0.414536   6.115716 C.ar        1 UNL1     0.1389
     13 C         -3.340164   -0.247122   4.791824 C.ar        1 UNL1     0.0229
     14 C         -4.954701   -1.685983   7.887155 C.2        1 UNL1     0.1740
     15 C         -4.270455   -0.76701   8.856095 C.3        1 UNL1     0.0520
     16 C         -4.189209   0.618673   8.230603 C.3        1 UNL1     0.1322
     17 O         -3.43752   0.581373   6.99746 O.3        1 UNL1     -0.4828
     18 C         -5.541283   1.328685   8.128113 C.ar        1 UNL1     -0.0067
     19 C         -5.613213   2.596016   7.514182 C.ar        1 UNL1     -0.0516
     20 C         -6.825197   3.293459   7.44612 C.ar        1 UNL1     -0.0198
     21 C         -7.968247   2.738849   7.993544 C.ar        1 UNL1     0.1169
     22 C         -7.936024   1.477994   8.57496 C.ar        1 UNL1     -0.0198
     23 C         -6.727966   0.772325   8.626752 C.ar        1 UNL1     -0.0516
     24 O         -9.122384   3.463908   7.942004 O.3        1 UNL1     -0.5068
     25 O         -5.711161   -2.568522   8.283865 O.2        1 UNL1     -0.2917
     26 O         -5.771718   -3.468537   5.743228 O.3        1 UNL1     -0.5058
     27 O         -0.195947   -0.236913   2.54075 O.3        1 UNL1     -0.3648
     28 O         0.24747   -1.944435   -0.607255 O.3        1 UNL1     -0.3841
     29 O         -2.461339   0.371987   -0.22334 O.3        1 UNL1     -0.3863
     30 O         -2.467161   -3.302248   -0.231685 O.3        1 UNL1     -0.3829
     31 H         0.638877   -1.879632   1.777511 H        1 UNL1     0.0937
     32 H         0.0   0.0   0.0 H        1 UNL1     0.0671
     33 H         -1.892096   -1.162977   -1.408071 H        1 UNL1     0.0649
     34 H         -3.851159   -1.819183   0.079766 H        1 UNL1     0.0683
     35 H         -3.185408   -2.962632   2.144603 H        1 UNL1     0.1085
     36 H         -4.809875   -2.99467   3.428575 H        1 UNL1     0.0691
     37 H         -2.725872   0.616323   4.545652 H        1 UNL1     0.0691
     38 H         -3.271483   -1.172752   9.048333 H        1 UNL1     0.0385
     39 H         -4.825601   -0.763162   9.800329 H        1 UNL1     0.0385
     40 H         -3.583801   1.242095   8.902426 H        1 UNL1     0.0789
     41 H         -4.728257   3.056916   7.085142 H        1 UNL1     0.0623
     42 H         -6.865337   4.275178   6.980687 H        1 UNL1     0.0654
     43 H         -8.828343   1.027826   8.993321 H        1 UNL1     0.0654
     44 H         -6.741549   -0.214723   9.078855 H        1 UNL1     0.0623
     45 H         -8.994105   4.281171   8.450278 H        1 UNL1     0.2921
     46 H         -5.381651   -3.988612   6.463493 H        1 UNL1     0.2922
     47 H         0.534317   0.32791   2.2517 H        1 UNL1     0.2126
     48 H         1.195132   -1.829686   -0.401094 H        1 UNL1     0.2101
     49 H         -2.032753   0.961429   -0.864172 H        1 UNL1     0.2100
     50 H         -2.71769   -3.29957   -1.178754 H        1 UNL1     0.2102
@<TRIPOS>BOND
     1     1     2    1
     2     1     6    1
     3     2     3    1
     4     3     4    1
     5     3    29    1
     6     3    33    1
     7     4     5    1
     8     5     6    1
     9     5     7    1
    10     5    35    1
    11     7     8    1
    12     8     9   ar
    13     8    13   ar
    14     9    10   ar
    15     9    36    1
    16    10    11   ar
    17    10    26    1
    18    11    12   ar
    19    11    14    1
    20    12    13   ar
    21    12    17    1
    22    13    37    1
    23    14    15    1
    24    14    25    2
    25    15    16    1
    26    15    38    1
    27    15    39    1
    28    16    17    1
    29    16    18    1
    30    16    40    1
    31    18    19   ar
    32    18    23   ar
    33    19    20   ar
    34    19    41    1
    35    20    21   ar
    36    20    42    1
    37    21    22   ar
    38    21    24    1
    39    22    23   ar
    40    22    43    1
    41    23    44    1
    42    24    45    1
    43    26    46    1
    44    27    47    1
    45    28    48    1
    46    29    49    1
    47    30    50    1
    48     1    31    1
    49     1    27    1
    50     2    32    1
    51     2    28    1
    52     4    34    1
    53     4    30    1
