@<TRIPOS>MOLECULE
*****
 50 53 0 0 0
SMALL
GASTEIGER

@<TRIPOS>ATOM
     1 C         -0.293571   -1.309264   1.723499 C.3        1 UNL1     0.1889
     2 C         -0.441744   -0.981267   0.213398 C.3        1 UNL1     0.1342
     3 C         -1.886326   -1.004835   -0.309184 C.3        1 UNL1     0.1174
     4 C         -2.746849   -2.071378   0.3728 C.3        1 UNL1     0.1456
     5 C         -2.583802   -2.071086   1.903741 C.3        1 UNL1     0.2326
     6 O         -1.212407   -2.257192   2.246537 O.3        1 UNL1     -0.3076
     7 O         -3.176523   -0.926003   2.543106 O.3        1 UNL1     -0.4605
     8 C         -3.673043   -1.132698   3.817575 C.ar        1 UNL1     0.1310
     9 C         -4.465539   -2.215805   4.21271 C.ar        1 UNL1     0.0226
     10 C         -4.906445   -2.345619   5.535076 C.ar        1 UNL1     0.1343
     11 C         -4.545355   -1.407029   6.500739 C.ar        1 UNL1     0.1007
     12 C         -3.788513   -0.299463   6.109241 C.ar        1 UNL1     0.1389
     13 C         -3.347518   -0.167779   4.778972 C.ar        1 UNL1     0.0229
     14 C         -4.913121   -1.539306   7.929516 C.2        1 UNL1     0.1740
     15 C         -4.256299   -0.564292   8.861976 C.3        1 UNL1     0.0520
     16 C         -4.218549   0.798977   8.185197 C.3        1 UNL1     0.1322
     17 O         -3.467601   0.738898   6.952502 O.3        1 UNL1     -0.4828
     18 C         -5.591975   1.462793   8.059608 C.ar        1 UNL1     -0.0067
     19 C         -5.990679   1.99986   6.818315 C.ar        1 UNL1     -0.0516
     20 C         -7.220023   2.655437   6.68086 C.ar        1 UNL1     -0.0198
     21 C         -8.054491   2.786668   7.776427 C.ar        1 UNL1     0.1169
     22 C         -7.704479   2.239052   9.003801 C.ar        1 UNL1     -0.0198
     23 C         -6.483394   1.567295   9.137033 C.ar        1 UNL1     -0.0516
     24 O         -9.22687   3.464475   7.613622 O.3        1 UNL1     -0.5068
     25 O         -5.641546   -2.429289   8.360575 O.2        1 UNL1     -0.2917
     26 O         -5.677516   -3.424731   5.855314 O.3        1 UNL1     -0.5058
     27 O         -0.204673   -0.156896   2.546257 O.3        1 UNL1     -0.3648
     28 O         0.302421   -1.956383   -0.540308 O.3        1 UNL1     -0.3841
     29 O         -2.468951   0.298603   -0.248115 O.3        1 UNL1     -0.3863
     30 O         -2.377517   -3.372704   -0.133 O.3        1 UNL1     -0.3829
     31 H         0.677829   -1.801412   1.842875 H        1 UNL1     0.0937
     32 H         0.0   0.0   0.0 H        1 UNL1     0.0671
     33 H         -1.852284   -1.259435   -1.377706 H        1 UNL1     0.0649
     34 H         -3.802088   -1.917443   0.121454 H        1 UNL1     0.0683
     35 H         -3.118575   -2.973015   2.226882 H        1 UNL1     0.1085
     36 H         -4.733603   -3.008058   3.52235 H        1 UNL1     0.0691
     37 H         -2.760418   0.70437   4.499396 H        1 UNL1     0.0691
     38 H         -3.245067   -0.931702   9.066781 H        1 UNL1     0.0385
     39 H         -4.810125   -0.542345   9.806737 H        1 UNL1     0.0385
     40 H         -3.631793   1.465297   8.831926 H        1 UNL1     0.0789
     41 H         -5.349529   1.917972   5.945462 H        1 UNL1     0.0623
     42 H         -7.510893   3.075746   5.721305 H        1 UNL1     0.0654
     43 H         -8.35716   2.322915   9.864548 H        1 UNL1     0.0654
     44 H         -6.2468   1.142603   10.107861 H        1 UNL1     0.0623
     45 H         -9.020537   4.37233   7.338044 H        1 UNL1     0.2921
     46 H         -5.25864   -3.918679   6.577789 H        1 UNL1     0.2922
     47 H         0.525253   0.40711   2.25477 H        1 UNL1     0.2126
     48 H         1.235855   -1.868155   -0.267085 H        1 UNL1     0.2101
     49 H         -2.046232   0.879916   -0.900172 H        1 UNL1     0.2100
     50 H         -2.617238   -3.406385   -1.082269 H        1 UNL1     0.2102
@<TRIPOS>BOND
     1     1     2    1
     2     1     6    1
     3     2     3    1
     4     3     4    1
     5     3    29    1
     6     3    33    1
     7     4     5    1
     8     5     6    1
     9     5     7    1
    10     5    35    1
    11     7     8    1
    12     8     9   ar
    13     8    13   ar
    14     9    10   ar
    15     9    36    1
    16    10    11   ar
    17    10    26    1
    18    11    12   ar
    19    11    14    1
    20    12    13   ar
    21    12    17    1
    22    13    37    1
    23    14    15    1
    24    14    25    2
    25    15    16    1
    26    15    38    1
    27    15    39    1
    28    16    17    1
    29    16    18    1
    30    16    40    1
    31    18    19   ar
    32    18    23   ar
    33    19    20   ar
    34    19    41    1
    35    20    21   ar
    36    20    42    1
    37    21    22   ar
    38    21    24    1
    39    22    23   ar
    40    22    43    1
    41    23    44    1
    42    24    45    1
    43    26    46    1
    44    27    47    1
    45    28    48    1
    46    29    49    1
    47    30    50    1
    48     1    31    1
    49     1    27    1
    50     2    32    1
    51     2    28    1
    52     4    34    1
    53     4    30    1
