@<TRIPOS>MOLECULE
*****
 50 53 0 0 0
SMALL
GASTEIGER

@<TRIPOS>ATOM
     1 C         -0.330525   -1.327293   1.702895 C.3        1 UNL1     0.1889
     2 C         -0.461757   -0.975551   0.196576 C.3        1 UNL1     0.1342
     3 C         -1.902789   -0.964328   -0.336121 C.3        1 UNL1     0.1174
     4 C         -2.788174   -2.023677   0.324932 C.3        1 UNL1     0.1456
     5 C         -2.635998   -2.047794   1.856802 C.3        1 UNL1     0.2326
     6 O         -1.270837   -2.264737   2.20629 O.3        1 UNL1     -0.3076
     7 O         -3.21143   -0.900639   2.508134 O.3        1 UNL1     -0.4605
     8 C         -3.720366   -1.11545   3.776349 C.ar        1 UNL1     0.1310
     9 C         -4.535719   -2.188745   4.151232 C.ar        1 UNL1     0.0226
     10 C         -4.987933   -2.328404   5.468767 C.ar        1 UNL1     0.1343
     11 C         -4.615832   -1.410176   6.449704 C.ar        1 UNL1     0.1007
     12 C         -3.83569   -0.311805   6.078565 C.ar        1 UNL1     0.1389
     13 C         -3.383299   -0.170169   4.753154 C.ar        1 UNL1     0.0229
     14 C         -4.995687   -1.555142   7.87408 C.2        1 UNL1     0.1740
     15 C         -4.327004   -0.605622   8.824251 C.3        1 UNL1     0.0520
     16 C         -4.259077   0.765878   8.166732 C.3        1 UNL1     0.1322
     17 O         -3.501057   0.708611   6.938238 O.3        1 UNL1     -0.4828
     18 C         -5.618914   1.457158   8.04143 C.ar        1 UNL1     -0.0067
     19 C         -5.999044   2.018686   6.805145 C.ar        1 UNL1     -0.0516
     20 C         -7.214901   2.699175   6.668804 C.ar        1 UNL1     -0.0198
     21 C         -8.054161   2.831037   7.760629 C.ar        1 UNL1     0.1169
     22 C         -7.722816   2.260072   8.982533 C.ar        1 UNL1     -0.0198
     23 C         -6.515491   1.563623   9.114373 C.ar        1 UNL1     -0.0516
     24 O         -9.212475   3.533023   7.599619 O.3        1 UNL1     -0.5068
     25 O         -5.7436   -2.43707   8.287983 O.2        1 UNL1     -0.2917
     26 O         -5.781283   -3.39708   5.768957 O.3        1 UNL1     -0.5058
     27 O         -0.225637   -0.188388   2.542347 O.3        1 UNL1     -0.3648
     28 O         0.269118   -1.95408   -0.565663 O.3        1 UNL1     -0.3841
     29 O         -2.461031   0.348993   -0.260721 O.3        1 UNL1     -0.3863
     30 O         -2.439992   -3.324636   -0.196569 O.3        1 UNL1     -0.3829
     31 H         0.630507   -1.839464   1.821965 H        1 UNL1     0.0937
     32 H         0.0   0.0   0.0 H        1 UNL1     0.0671
     33 H         -1.86601   -1.204637   -1.407857 H        1 UNL1     0.0649
     34 H         -3.838501   -1.846191   0.068586 H        1 UNL1     0.0683
     35 H         -3.190039   -2.943785   2.163588 H        1 UNL1     0.1085
     36 H         -4.81393   -2.966222   3.448203 H        1 UNL1     0.0691
     37 H         -2.778045   0.694512   4.489548 H        1 UNL1     0.0691
     38 H         -3.32426   -0.994832   9.030516 H        1 UNL1     0.0385
     39 H         -4.886708   -0.586233   9.765598 H        1 UNL1     0.0385
     40 H         -3.664307   1.412042   8.82646 H        1 UNL1     0.0789
     41 H         -5.353647   1.936736   5.935434 H        1 UNL1     0.0623
     42 H         -7.49132   3.138064   5.713304 H        1 UNL1     0.0654
     43 H         -8.379623   2.344382   9.840091 H        1 UNL1     0.0654
     44 H         -6.293496   1.121221   10.080729 H        1 UNL1     0.0623
     45 H         -8.98729   4.440339   7.337347 H        1 UNL1     0.2921
     46 H         -5.376487   -3.908935   6.48698 H        1 UNL1     0.2922
     47 H         0.516996   0.365529   2.263901 H        1 UNL1     0.2126
     48 H         1.201977   -1.887943   -0.284359 H        1 UNL1     0.2101
     49 H         -2.022766   0.931167   -0.90165 H        1 UNL1     0.2100
     50 H         -2.67358   -3.340533   -1.14783 H        1 UNL1     0.2102
@<TRIPOS>BOND
     1     1     2    1
     2     1     6    1
     3     2     3    1
     4     3     4    1
     5     3    29    1
     6     3    33    1
     7     4     5    1
     8     5     6    1
     9     5     7    1
    10     5    35    1
    11     7     8    1
    12     8     9   ar
    13     8    13   ar
    14     9    10   ar
    15     9    36    1
    16    10    11   ar
    17    10    26    1
    18    11    12   ar
    19    11    14    1
    20    12    13   ar
    21    12    17    1
    22    13    37    1
    23    14    15    1
    24    14    25    2
    25    15    16    1
    26    15    38    1
    27    15    39    1
    28    16    17    1
    29    16    18    1
    30    16    40    1
    31    18    19   ar
    32    18    23   ar
    33    19    20   ar
    34    19    41    1
    35    20    21   ar
    36    20    42    1
    37    21    22   ar
    38    21    24    1
    39    22    23   ar
    40    22    43    1
    41    23    44    1
    42    24    45    1
    43    26    46    1
    44    27    47    1
    45    28    48    1
    46    29    49    1
    47    30    50    1
    48     1    31    1
    49     1    27    1
    50     2    32    1
    51     2    28    1
    52     4    34    1
    53     4    30    1
