@<TRIPOS>MOLECULE
*****
 50 53 0 0 0
SMALL
GASTEIGER

@<TRIPOS>ATOM
     1 C         -0.313926   -1.373849   1.66877 C.3        1 UNL1     0.1889
     2 C         -0.458521   -0.981388   0.173776 C.3        1 UNL1     0.1342
     3 C         -1.904047   -0.958257   -0.34621 C.3        1 UNL1     0.1174
     4 C         -2.782097   -2.036851   0.293149 C.3        1 UNL1     0.1456
     5 C         -2.616862   -2.102469   1.822448 C.3        1 UNL1     0.2326
     6 O         -1.248437   -2.326383   2.154327 O.3        1 UNL1     -0.3076
     7 O         -3.188553   -0.974555   2.509689 O.3        1 UNL1     -0.4605
     8 C         -3.696991   -1.227315   3.771089 C.ar        1 UNL1     0.1310
     9 C         -4.509311   -2.313299   4.11471 C.ar        1 UNL1     0.0226
     10 C         -4.961248   -2.492199   5.427588 C.ar        1 UNL1     0.1343
     11 C         -4.591861   -1.601595   6.434672 C.ar        1 UNL1     0.1007
     12 C         -3.814824   -0.490754   6.095511 C.ar        1 UNL1     0.1389
     13 C         -3.362716   -0.30965   4.774818 C.ar        1 UNL1     0.0229
     14 C         -4.971433   -1.788676   7.854207 C.2        1 UNL1     0.1740
     15 C         -4.305553   -0.86506   8.831492 C.3        1 UNL1     0.0520
     16 C         -4.241481   0.525026   8.213825 C.3        1 UNL1     0.1322
     17 O         -3.483186   0.505386   6.984324 O.3        1 UNL1     -0.4828
     18 C         -5.603274   1.215752   8.10828 C.ar        1 UNL1     -0.0067
     19 C         -5.73725   2.362548   7.298882 C.ar        1 UNL1     -0.0516
     20 C         -6.956452   3.04583   7.217433 C.ar        1 UNL1     -0.0198
     21 C         -8.04466   2.597659   7.9446 C.ar        1 UNL1     0.1169
     22 C         -7.953042   1.452029   8.724328 C.ar        1 UNL1     -0.0198
     23 C         -6.739053   0.757929   8.791507 C.ar        1 UNL1     -0.0516
     24 O         -9.205063   3.310597   7.869867 O.3        1 UNL1     -0.5068
     25 O         -5.716863   -2.684307   8.242363 O.2        1 UNL1     -0.2917
     26 O         -5.751571   -3.571348   5.696684 O.3        1 UNL1     -0.5058
     27 O         -0.203711   -0.258077   2.538076 O.3        1 UNL1     -0.3648
     28 O         0.267397   -1.93743   -0.62104 O.3        1 UNL1     -0.3841
     29 O         -2.46371   0.351502   -0.230276 O.3        1 UNL1     -0.3863
     30 O         -2.4363   -3.322466   -0.26659 O.3        1 UNL1     -0.3829
     31 H         0.648894   -1.88733   1.765686 H        1 UNL1     0.0937
     32 H         0.0   0.0   0.0 H        1 UNL1     0.0671
     33 H         -1.876002   -1.169175   -1.424379 H        1 UNL1     0.0649
     34 H         -3.834846   -1.854348   0.050634 H        1 UNL1     0.0683
     35 H         -3.166853   -3.0075   2.109341 H        1 UNL1     0.1085
     36 H         -4.785236   -3.07096   3.389496 H        1 UNL1     0.0691
     37 H         -2.759909   0.563998   4.536373 H        1 UNL1     0.0691
     38 H         -3.30172   -1.257199   9.026619 H        1 UNL1     0.0385
     39 H         -4.865397   -0.874434   9.772909 H        1 UNL1     0.0385
     40 H         -3.64862   1.153582   8.892025 H        1 UNL1     0.0789
     41 H         -4.895456   2.739719   6.725492 H        1 UNL1     0.0623
     42 H         -7.043856   3.935787   6.599089 H        1 UNL1     0.0654
     43 H         -8.803162   1.083688   9.28605 H        1 UNL1     0.0654
     44 H         -6.706256   -0.139199   9.402186 H        1 UNL1     0.0623
     45 H         -9.053193   4.18566   8.26219 H        1 UNL1     0.2921
     46 H         -5.357529   -4.089559   6.416129 H        1 UNL1     0.2922
     47 H         0.522542   0.315492   2.256233 H        1 UNL1     0.2126
     48 H         1.213171   -1.815731   -0.41025 H        1 UNL1     0.2101
     49 H         -2.03797   0.94966   -0.864899 H        1 UNL1     0.2100
     50 H         -2.703831   -3.322809   -1.209002 H        1 UNL1     0.2102
@<TRIPOS>BOND
     1     1     2    1
     2     1     6    1
     3     2     3    1
     4     3     4    1
     5     3    29    1
     6     3    33    1
     7     4     5    1
     8     5     6    1
     9     5     7    1
    10     5    35    1
    11     7     8    1
    12     8     9   ar
    13     8    13   ar
    14     9    10   ar
    15     9    36    1
    16    10    11   ar
    17    10    26    1
    18    11    12   ar
    19    11    14    1
    20    12    13   ar
    21    12    17    1
    22    13    37    1
    23    14    15    1
    24    14    25    2
    25    15    16    1
    26    15    38    1
    27    15    39    1
    28    16    17    1
    29    16    18    1
    30    16    40    1
    31    18    19   ar
    32    18    23   ar
    33    19    20   ar
    34    19    41    1
    35    20    21   ar
    36    20    42    1
    37    21    22   ar
    38    21    24    1
    39    22    23   ar
    40    22    43    1
    41    23    44    1
    42    24    45    1
    43    26    46    1
    44    27    47    1
    45    28    48    1
    46    29    49    1
    47    30    50    1
    48     1    31    1
    49     1    27    1
    50     2    32    1
    51     2    28    1
    52     4    34    1
    53     4    30    1
