@<TRIPOS>MOLECULE
*****
 50 53 0 0 0
SMALL
GASTEIGER

@<TRIPOS>ATOM
     1 C         -0.254731   -1.397036   1.65958 C.3        1 UNL1     0.1889
     2 C         -0.445435   -0.987281   0.174429 C.3        1 UNL1     0.1342
     3 C         -1.905465   -0.96983   -0.303559 C.3        1 UNL1     0.1174
     4 C         -2.756062   -2.063603   0.347025 C.3        1 UNL1     0.1456
     5 C         -2.546365   -2.146804   1.870005 C.3        1 UNL1     0.2326
     6 O         -1.167202   -2.363329   2.159651 O.3        1 UNL1     -0.3076
     7 O         -3.107081   -1.032341   2.587563 O.3        1 UNL1     -0.4605
     8 C         -3.566636   -1.302553   3.864013 C.ar        1 UNL1     0.1310
     9 C         -4.358174   -2.398108   4.225298 C.ar        1 UNL1     0.0226
     10 C         -4.759865   -2.594619   5.551922 C.ar        1 UNL1     0.1343
     11 C         -4.359504   -1.712401   6.55454 C.ar        1 UNL1     0.1007
     12 C         -3.603229   -0.592297   6.199294 C.ar        1 UNL1     0.1389
     13 C         -3.201672   -0.393496   4.86488 C.ar        1 UNL1     0.0229
     14 C         -4.68487   -1.91773   7.98497 C.2        1 UNL1     0.1740
     15 C         -3.989559   -1.00002   8.947207 C.3        1 UNL1     0.0520
     16 C         -3.957988   0.397158   8.343175 C.3        1 UNL1     0.1322
     17 O         -3.245701   0.396464   7.086307 O.3        1 UNL1     -0.4828
     18 C         -5.327471   1.079067   8.295836 C.ar        1 UNL1     -0.0067
     19 C         -5.756962   1.687867   7.098708 C.ar        1 UNL1     -0.0516
     20 C         -6.982869   2.360936   7.034743 C.ar        1 UNL1     -0.0198
     21 C         -7.783223   2.438398   8.160469 C.ar        1 UNL1     0.1169
     22 C         -7.402921   1.820271   9.344585 C.ar        1 UNL1     -0.0198
     23 C         -6.185564   1.131357   9.403688 C.ar        1 UNL1     -0.0516
     24 O         -8.952708   3.134567   8.070722 O.3        1 UNL1     -0.5068
     25 O         -5.409222   -2.822947   8.390411 O.2        1 UNL1     -0.2917
     26 O         -5.532233   -3.682365   5.838001 O.3        1 UNL1     -0.5058
     27 O         -0.128508   -0.291252   2.539408 O.3        1 UNL1     -0.3648
     28 O         0.264964   -1.927263   -0.6529 O.3        1 UNL1     -0.3841
     29 O         -2.472059   0.333648   -0.155073 O.3        1 UNL1     -0.3863
     30 O         -2.416203   -3.339227   -0.238611 O.3        1 UNL1     -0.3829
     31 H         0.714572   -1.903584   1.722347 H        1 UNL1     0.0937
     32 H         0.0   0.0   0.0 H        1 UNL1     0.0671
     33 H         -1.906765   -1.16711   -1.384669 H        1 UNL1     0.0649
     34 H         -3.816786   -1.886944   0.137124 H        1 UNL1     0.0683
     35 H         -3.080586   -3.059908   2.161084 H        1 UNL1     0.1085
     36 H         -4.655598   -3.149793   3.502367 H        1 UNL1     0.0691
     37 H         -2.614137   0.487067   4.614072 H        1 UNL1     0.0691
     38 H         -2.97651   -1.38695   9.100648 H        1 UNL1     0.0385
     39 H         -4.514022   -1.023747   9.908536 H        1 UNL1     0.0385
     40 H         -3.344712   1.022568   9.005953 H        1 UNL1     0.0789
     41 H         -5.142742   1.648991   6.203793 H        1 UNL1     0.0623
     42 H         -7.297493   2.836534   6.109092 H        1 UNL1     0.0654
     43 H         -8.029004   1.861896   10.227873 H        1 UNL1     0.0654
     44 H         -5.924903   0.651236   10.341977 H        1 UNL1     0.0623
     45 H         -8.744725   4.055769   7.84523 H        1 UNL1     0.2921
     46 H         -5.097437   -4.217326   6.520775 H        1 UNL1     0.2922
     47 H         0.596367   0.282437   2.254281 H        1 UNL1     0.2126
     48 H         1.209349   -1.850014   -0.416463 H        1 UNL1     0.2101
     49 H         -2.063406   0.9452   -0.788161 H        1 UNL1     0.2100
     50 H         -2.69028   -3.321876   -1.17898 H        1 UNL1     0.2102
@<TRIPOS>BOND
     1     1     2    1
     2     1     6    1
     3     2     3    1
     4     3     4    1
     5     3    29    1
     6     3    33    1
     7     4     5    1
     8     5     6    1
     9     5     7    1
    10     5    35    1
    11     7     8    1
    12     8     9   ar
    13     8    13   ar
    14     9    10   ar
    15     9    36    1
    16    10    11   ar
    17    10    26    1
    18    11    12   ar
    19    11    14    1
    20    12    13   ar
    21    12    17    1
    22    13    37    1
    23    14    15    1
    24    14    25    2
    25    15    16    1
    26    15    38    1
    27    15    39    1
    28    16    17    1
    29    16    18    1
    30    16    40    1
    31    18    19   ar
    32    18    23   ar
    33    19    20   ar
    34    19    41    1
    35    20    21   ar
    36    20    42    1
    37    21    22   ar
    38    21    24    1
    39    22    23   ar
    40    22    43    1
    41    23    44    1
    42    24    45    1
    43    26    46    1
    44    27    47    1
    45    28    48    1
    46    29    49    1
    47    30    50    1
    48     1    31    1
    49     1    27    1
    50     2    32    1
    51     2    28    1
    52     4    34    1
    53     4    30    1
