@<TRIPOS>MOLECULE
*****
 50 53 0 0 0
SMALL
GASTEIGER

@<TRIPOS>ATOM
     1 C         -0.33685   -1.331119   1.698664 C.3        1 UNL1     0.1889
     2 C         -0.464871   -0.974755   0.193155 C.3        1 UNL1     0.1342
     3 C         -1.905088   -0.957845   -0.341591 C.3        1 UNL1     0.1174
     4 C         -2.794503   -2.016475   0.31519 C.3        1 UNL1     0.1456
     5 C         -2.644625   -2.04535   1.847204 C.3        1 UNL1     0.2326
     6 O         -1.280609   -2.267241   2.198052 O.3        1 UNL1     -0.3076
     7 O         -3.217673   -0.898367   2.500937 O.3        1 UNL1     -0.4605
     8 C         -3.729498   -1.115374   3.767614 C.ar        1 UNL1     0.1310
     9 C         -4.548718   -2.18732   4.1379 C.ar        1 UNL1     0.0226
     10 C         -5.003685   -2.329492   5.454218 C.ar        1 UNL1     0.1343
     11 C         -4.630585   -1.415262   6.438505 C.ar        1 UNL1     0.1007
     12 C         -3.846509   -0.318146   6.071975 C.ar        1 UNL1     0.1389
     13 C         -3.391344   -0.173976   4.747788 C.ar        1 UNL1     0.0229
     14 C         -5.013399   -1.56327   7.861777 C.2        1 UNL1     0.1740
     15 C         -4.343571   -0.618547   8.815913 C.3        1 UNL1     0.0520
     16 C         -4.27038   0.754667   8.16255 C.3        1 UNL1     0.1322
     17 O         -3.510355   0.698737   6.935234 O.3        1 UNL1     -0.4828
     18 C         -5.627922   1.450377   8.036879 C.ar        1 UNL1     -0.0067
     19 C         -6.002994   2.019114   6.802345 C.ar        1 UNL1     -0.0516
     20 C         -7.216556   2.703684   6.665986 C.ar        1 UNL1     -0.0198
     21 C         -8.05852   2.832468   7.756095 C.ar        1 UNL1     0.1169
     22 C         -7.732218   2.254503   8.976063 C.ar        1 UNL1     -0.0198
     23 C         -6.527221   1.554019   9.107819 C.ar        1 UNL1     -0.0516
     24 O         -9.21441   3.538496   7.595336 O.3        1 UNL1     -0.5068
     25 O         -5.764676   -2.444167   8.271763 O.2        1 UNL1     -0.2917
     26 O         -5.800755   -3.396665   5.749864 O.3        1 UNL1     -0.5058
     27 O         -0.229879   -0.194892   2.541477 O.3        1 UNL1     -0.3648
     28 O         0.26427   -1.953252   -0.570784 O.3        1 UNL1     -0.3841
     29 O         -2.459626   0.356875   -0.263293 O.3        1 UNL1     -0.3863
     30 O         -2.449339   -3.316966   -0.209476 O.3        1 UNL1     -0.3829
     31 H         0.622518   -1.846414   1.817678 H        1 UNL1     0.0937
     32 H         0.0   0.0   0.0 H        1 UNL1     0.0671
     33 H         -1.867448   -1.19524   -1.413947 H        1 UNL1     0.0649
     34 H         -3.843937   -1.835217   0.057827 H        1 UNL1     0.0683
     35 H         -3.201709   -2.940588   2.15066 H        1 UNL1     0.1085
     36 H         -4.828002   -2.961895   3.432099 H        1 UNL1     0.0691
     37 H         -2.783043   0.689659   4.487794 H        1 UNL1     0.0691
     38 H         -3.342361   -1.011359   9.022804 H        1 UNL1     0.0385
     39 H         -4.904884   -0.600246   9.756324 H        1 UNL1     0.0385
     40 H         -3.674856   1.39711   8.825224 H        1 UNL1     0.0789
     41 H         -5.355378   1.93968   5.934051 H        1 UNL1     0.0623
     42 H         -7.489052   3.148096   5.711913 H        1 UNL1     0.0654
     43 H         -8.391203   2.336389   9.832185 H        1 UNL1     0.0654
     44 H         -6.309189   1.106193   10.072578 H        1 UNL1     0.0623
     45 H         -8.985784   4.448141   7.344354 H        1 UNL1     0.2921
     46 H         -5.398937   -3.911639   6.467329 H        1 UNL1     0.2922
     47 H         0.512968   0.359155   2.263863 H        1 UNL1     0.2126
     48 H         1.197986   -1.88622   -0.292551 H        1 UNL1     0.2101
     49 H         -2.018861   0.939534   -0.902064 H        1 UNL1     0.2100
     50 H         -2.681588   -3.329504   -1.161114 H        1 UNL1     0.2102
@<TRIPOS>BOND
     1     1     2    1
     2     1     6    1
     3     2     3    1
     4     3     4    1
     5     3    29    1
     6     3    33    1
     7     4     5    1
     8     5     6    1
     9     5     7    1
    10     5    35    1
    11     7     8    1
    12     8     9   ar
    13     8    13   ar
    14     9    10   ar
    15     9    36    1
    16    10    11   ar
    17    10    26    1
    18    11    12   ar
    19    11    14    1
    20    12    13   ar
    21    12    17    1
    22    13    37    1
    23    14    15    1
    24    14    25    2
    25    15    16    1
    26    15    38    1
    27    15    39    1
    28    16    17    1
    29    16    18    1
    30    16    40    1
    31    18    19   ar
    32    18    23   ar
    33    19    20   ar
    34    19    41    1
    35    20    21   ar
    36    20    42    1
    37    21    22   ar
    38    21    24    1
    39    22    23   ar
    40    22    43    1
    41    23    44    1
    42    24    45    1
    43    26    46    1
    44    27    47    1
    45    28    48    1
    46    29    49    1
    47    30    50    1
    48     1    31    1
    49     1    27    1
    50     2    32    1
    51     2    28    1
    52     4    34    1
    53     4    30    1
