@<TRIPOS>MOLECULE
*****
 50 53 0 0 0
SMALL
GASTEIGER

@<TRIPOS>ATOM
     1 C         -0.346445   -1.337406   1.691782 C.3        1 UNL1     0.1889
     2 C         -0.468529   -0.97412   0.187435 C.3        1 UNL1     0.1342
     3 C         -1.906966   -0.950375   -0.351824 C.3        1 UNL1     0.1174
     4 C         -2.801783   -2.009046   0.297511 C.3        1 UNL1     0.1456
     5 C         -2.656904   -2.045031   1.829855 C.3        1 UNL1     0.2326
     6 O         -1.294719   -2.272719   2.184085 O.3        1 UNL1     -0.3076
     7 O         -3.228458   -0.899101   2.486734 O.3        1 UNL1     -0.4605
     8 C         -3.755193   -1.12241   3.746182 C.ar        1 UNL1     0.1310
     9 C         -4.586144   -2.19115   4.099193 C.ar        1 UNL1     0.0226
     10 C         -5.055998   -2.340449   5.409479 C.ar        1 UNL1     0.1343
     11 C         -4.68657   -1.436924   6.404973 C.ar        1 UNL1     0.1007
     12 C         -3.890614   -0.342784   6.055552 C.ar        1 UNL1     0.1389
     13 C         -3.420466   -0.191425   4.737416 C.ar        1 UNL1     0.0229
     14 C         -5.085448   -1.593452   7.822912 C.2        1 UNL1     0.1740
     15 C         -4.418775   -0.661405   8.791614 C.3        1 UNL1     0.0520
     16 C         -4.328588   0.716406   8.150162 C.3        1 UNL1     0.1322
     17 O         -3.556099   0.664631   6.93047 O.3        1 UNL1     -0.4828
     18 C         -5.679568   1.423193   8.015889 C.ar        1 UNL1     -0.0067
     19 C         -6.031059   2.01752   6.786481 C.ar        1 UNL1     -0.0516
     20 C         -7.237978   2.712432   6.643626 C.ar        1 UNL1     -0.0198
     21 C         -8.096668   2.826141   7.722305 C.ar        1 UNL1     0.1169
     22 C         -7.793761   2.223181   8.936194 C.ar        1 UNL1     -0.0198
     23 C         -6.59543   1.5125   9.074008 C.ar        1 UNL1     -0.0516
     24 O         -9.245394   3.542591   7.556391 O.3        1 UNL1     -0.5068
     25 O         -5.847473   -2.471977   8.217875 O.2        1 UNL1     -0.2917
     26 O         -5.863979   -3.403984   5.688128 O.3        1 UNL1     -0.5058
     27 O         -0.238627   -0.205185   2.53986 O.3        1 UNL1     -0.3648
     28 O         0.259995   -1.951579   -0.578419 O.3        1 UNL1     -0.3841
     29 O         -2.457644   0.365727   -0.269585 O.3        1 UNL1     -0.3863
     30 O         -2.459003   -3.308327   -0.231697 O.3        1 UNL1     -0.3829
     31 H         0.610922   -1.856219   1.811616 H        1 UNL1     0.0937
     32 H         0.0   0.0   0.0 H        1 UNL1     0.0671
     33 H         -1.866633   -1.183236   -1.425076 H        1 UNL1     0.0649
     34 H         -3.849815   -1.823383   0.037591 H        1 UNL1     0.0683
     35 H         -3.21775   -2.939824   2.12764 H        1 UNL1     0.1085
     36 H         -4.863669   -2.957954   3.384273 H        1 UNL1     0.0691
     37 H         -2.803113   0.669705   4.490795 H        1 UNL1     0.0691
     38 H         -3.422722   -1.063307   9.005811 H        1 UNL1     0.0385
     39 H         -4.989821   -0.646443   9.726206 H        1 UNL1     0.0385
     40 H         -3.735367   1.349076   8.824208 H        1 UNL1     0.0789
     41 H         -5.369974   1.95024   5.927359 H        1 UNL1     0.0623
     42 H         -7.492223   3.176507   5.693886 H        1 UNL1     0.0654
     43 H         -8.466001   2.293216   9.78301 H        1 UNL1     0.0654
     44 H         -6.395836   1.045166   10.03349 H        1 UNL1     0.0623
     45 H         -9.007006   4.461155   7.351142 H        1 UNL1     0.2921
     46 H         -5.474245   -3.926884   6.406526 H        1 UNL1     0.2922
     47 H         0.495757   0.356969   2.256096 H        1 UNL1     0.2126
     48 H         1.198677   -1.863416   -0.323788 H        1 UNL1     0.2101
     49 H         -2.018731   0.947736   -0.910221 H        1 UNL1     0.2100
     50 H         -2.693475   -3.317919   -1.182824 H        1 UNL1     0.2102
@<TRIPOS>BOND
     1     1     2    1
     2     1     6    1
     3     2     3    1
     4     3     4    1
     5     3    29    1
     6     3    33    1
     7     4     5    1
     8     5     6    1
     9     5     7    1
    10     5    35    1
    11     7     8    1
    12     8     9   ar
    13     8    13   ar
    14     9    10   ar
    15     9    36    1
    16    10    11   ar
    17    10    26    1
    18    11    12   ar
    19    11    14    1
    20    12    13   ar
    21    12    17    1
    22    13    37    1
    23    14    15    1
    24    14    25    2
    25    15    16    1
    26    15    38    1
    27    15    39    1
    28    16    17    1
    29    16    18    1
    30    16    40    1
    31    18    19   ar
    32    18    23   ar
    33    19    20   ar
    34    19    41    1
    35    20    21   ar
    36    20    42    1
    37    21    22   ar
    38    21    24    1
    39    22    23   ar
    40    22    43    1
    41    23    44    1
    42    24    45    1
    43    26    46    1
    44    27    47    1
    45    28    48    1
    46    29    49    1
    47    30    50    1
    48     1    31    1
    49     1    27    1
    50     2    32    1
    51     2    28    1
    52     4    34    1
    53     4    30    1
