@<TRIPOS>MOLECULE
*****
 50 53 0 0 0
SMALL
GASTEIGER

@<TRIPOS>ATOM
     1 C         1.924124   -0.718112   -0.74355 C.3        1 UNL1     0.1889
     2 C         0.371803   -0.70585   -0.75306 C.3        1 UNL1     0.1342
     3 C         -0.281727   -2.076763   -0.520765 C.3        1 UNL1     0.1174
     4 C         0.519589   -3.227809   -1.134038 C.3        1 UNL1     0.1456
     5 C         2.023176   -3.135328   -0.816172 C.3        1 UNL1     0.2326
     6 O         2.539515   -1.885461   -1.267942 O.3        1 UNL1     -0.3076
     7 O         2.336   -3.412255   0.561062 O.3        1 UNL1     -0.4605
     8 C         2.355294   -2.320084   1.409778 C.ar        1 UNL1     0.1310
     9 C         2.883908   -2.309626   2.705061 C.ar        1 UNL1     0.0226
     10 C         2.871744   -1.145321   3.482331 C.ar        1 UNL1     0.1343
     11 C         2.351648   0.044104   2.973795 C.ar        1 UNL1     0.1007
     12 C         1.783824   0.035821   1.696967 C.ar        1 UNL1     0.1389
     13 C         1.79379   -1.135673   0.916624 C.ar        1 UNL1     0.0229
     14 C         2.389229   1.323365   3.719607 C.2        1 UNL1     0.1740
     15 C         1.992033   2.541839   2.939155 C.3        1 UNL1     0.0520
     16 C         0.803811   2.183078   2.057464 C.3        1 UNL1     0.1322
     17 O         1.147906   1.121204   1.140354 O.3        1 UNL1     -0.4828
     18 C         -0.493905   1.953335   2.835843 C.ar        1 UNL1     -0.0067
     19 C         -0.521804   2.199839   4.223889 C.ar        1 UNL1     -0.0516
     20 C         -1.678345   1.954961   4.973829 C.ar        1 UNL1     -0.0198
     21 C         -2.808662   1.457742   4.350145 C.ar        1 UNL1     0.1169
     22 C         -2.822529   1.236579   2.979111 C.ar        1 UNL1     -0.0198
     23 C         -1.671924   1.498823   2.225856 C.ar        1 UNL1     -0.0516
     24 O         -3.904205   1.195738   5.119262 O.3        1 UNL1     -0.5068
     25 O         2.791695   1.420269   4.875944 O.2        1 UNL1     -0.2917
     26 O         3.402006   -1.202148   4.738189 O.3        1 UNL1     -0.5058
     27 O         2.484783   -0.346603   0.505621 O.3        1 UNL1     -0.3648
     28 O         -0.072718   -0.231522   -2.03763 O.3        1 UNL1     -0.3841
     29 O         -0.563409   -2.275744   0.866028 O.3        1 UNL1     -0.3863
     30 O         0.346653   -3.214308   -2.567774 O.3        1 UNL1     -0.3829
     31 H         2.247411   0.072117   -1.429919 H        1 UNL1     0.0937
     32 H         -0.0   0.0   0.0 H        1 UNL1     0.0671
     33 H         -1.261036   -2.070224   -1.019395 H        1 UNL1     0.0649
     34 H         0.132042   -4.18707   -0.773447 H        1 UNL1     0.0683
     35 H         2.474765   -3.912967   -1.444841 H        1 UNL1     0.1085
     36 H         3.352863   -3.187084   3.13665 H        1 UNL1     0.0691
     37 H         1.344386   -1.116204   -0.073907 H        1 UNL1     0.0691
     38 H         2.854527   2.844324   2.335721 H        1 UNL1     0.0385
     39 H         1.760149   3.35456   3.635928 H        1 UNL1     0.0385
     40 H         0.606118   3.049773   1.412268 H        1 UNL1     0.0789
     41 H         0.355248   2.581472   4.738463 H        1 UNL1     0.0623
     42 H         -1.683602   2.137808   6.045534 H        1 UNL1     0.0654
     43 H         -3.707001   0.861588   2.478111 H        1 UNL1     0.0654
     44 H         -1.721592   1.324583   1.155333 H        1 UNL1     0.0623
     45 H         -3.841533   0.28184   5.441099 H        1 UNL1     0.2921
     46 H         2.88642   -0.63492   5.33303 H        1 UNL1     0.2922
     47 H         2.207834   -0.966666   1.194592 H        1 UNL1     0.2126
     48 H         -0.822642   0.370934   -1.869128 H        1 UNL1     0.2101
     49 H         0.059789   -1.764122   1.406083 H        1 UNL1     0.2100
     50 H         0.677089   -4.066897   -2.919365 H        1 UNL1     0.2102
@<TRIPOS>BOND
     1     1     2    1
     2     1     6    1
     3     2     3    1
     4     3     4    1
     5     3    29    1
     6     3    33    1
     7     4     5    1
     8     5     6    1
     9     5     7    1
    10     5    35    1
    11     7     8    1
    12     8     9   ar
    13     8    13   ar
    14     9    10   ar
    15     9    36    1
    16    10    11   ar
    17    10    26    1
    18    11    12   ar
    19    11    14    1
    20    12    13   ar
    21    12    17    1
    22    13    37    1
    23    14    15    1
    24    14    25    2
    25    15    16    1
    26    15    38    1
    27    15    39    1
    28    16    17    1
    29    16    18    1
    30    16    40    1
    31    18    19   ar
    32    18    23   ar
    33    19    20   ar
    34    19    41    1
    35    20    21   ar
    36    20    42    1
    37    21    22   ar
    38    21    24    1
    39    22    23   ar
    40    22    43    1
    41    23    44    1
    42    24    45    1
    43    26    46    1
    44    27    47    1
    45    28    48    1
    46    29    49    1
    47    30    50    1
    48     1    31    1
    49     1    27    1
    50     2    32    1
    51     2    28    1
    52     4    34    1
    53     4    30    1
