@<TRIPOS>MOLECULE
*****
 50 53 0 0 0
SMALL
GASTEIGER

@<TRIPOS>ATOM
     1 C         -1.537899   -0.565168   1.444388 C.3        1 UNL1     0.1889
     2 C         -0.665797   0.494201   0.71836 C.3        1 UNL1     0.1342
     3 C         0.173056   1.382027   1.650323 C.3        1 UNL1     0.1174
     4 C         -0.533777   1.688425   2.973057 C.3        1 UNL1     0.1456
     5 C         -1.154119   0.434123   3.615136 C.3        1 UNL1     0.2326
     6 O         -2.064906   -0.178026   2.704856 O.3        1 UNL1     -0.3076
     7 O         -0.177736   -0.483026   4.141288 O.3        1 UNL1     -0.4605
     8 C         -0.516046   -1.116085   5.32379 C.ar        1 UNL1     0.1310
     9 C         -0.764872   -0.476517   6.542945 C.ar        1 UNL1     0.0226
     10 C         -1.118589   -1.206275   7.684102 C.ar        1 UNL1     0.1343
     11 C         -1.255427   -2.59262   7.627854 C.ar        1 UNL1     0.1007
     12 C         -0.96957   -3.246364   6.426318 C.ar        1 UNL1     0.1389
     13 C         -0.611355   -2.512613   5.279705 C.ar        1 UNL1     0.0229
     14 C         -1.707983   -3.404617   8.781113 C.2        1 UNL1     0.1740
     15 C         -2.01335   -4.843051   8.482437 C.3        1 UNL1     0.0520
     16 C         -0.9587   -5.36944   7.518806 C.3        1 UNL1     0.1322
     17 O         -0.967437   -4.614875   6.286887 O.3        1 UNL1     -0.4828
     18 C         0.425288   -5.535908   8.150938 C.ar        1 UNL1     -0.0067
     19 C         1.443111   -6.190305   7.427049 C.ar        1 UNL1     -0.0516
     20 C         2.70575   -6.401178   7.993827 C.ar        1 UNL1     -0.0198
     21 C         2.960226   -5.969919   9.283433 C.ar        1 UNL1     0.1169
     22 C         1.988822   -5.292769   10.009162 C.ar        1 UNL1     -0.0198
     23 C         0.731972   -5.065418   9.435842 C.ar        1 UNL1     -0.0516
     24 O         4.189437   -6.226528   9.815967 O.3        1 UNL1     -0.5068
     25 O         -1.906085   -2.938448   9.900009 O.2        1 UNL1     -0.2917
     26 O         -1.34686   -0.522384   8.84245 O.3        1 UNL1     -0.5058
     27 O         -0.937953   -1.84961   1.499707 O.3        1 UNL1     -0.3648
     28 O         -1.53418   1.362356   -0.033255 O.3        1 UNL1     -0.3841
     29 O         1.478862   0.831706   1.835123 O.3        1 UNL1     -0.3863
     30 O         -1.580406   2.655383   2.738004 O.3        1 UNL1     -0.3829
     31 H         -2.431176   -0.711142   0.827276 H        1 UNL1     0.0937
     32 H         0.0   0.0   0.0 H        1 UNL1     0.0671
     33 H         0.331049   2.344532   1.144021 H        1 UNL1     0.0649
     34 H         0.171321   2.144019   3.677097 H        1 UNL1     0.0683
     35 H         -1.75138   0.830143   4.445994 H        1 UNL1     0.1085
     36 H         -0.729757   0.603227   6.638025 H        1 UNL1     0.0691
     37 H         -0.392803   -3.045381   4.356728 H        1 UNL1     0.0691
     38 H         -3.012314   -4.883606   8.035275 H        1 UNL1     0.0385
     39 H         -2.035463   -5.407626   9.420811 H        1 UNL1     0.0385
     40 H         -1.266725   -6.38146   7.223076 H        1 UNL1     0.0789
     41 H         1.265533   -6.546429   6.416459 H        1 UNL1     0.0623
     42 H         3.478554   -6.917612   7.42984 H        1 UNL1     0.0654
     43 H         2.182296   -4.937464   11.014267 H        1 UNL1     0.0654
     44 H         0.000274   -4.523801   10.027547 H        1 UNL1     0.0623
     45 H         4.594678   -6.953417   9.315837 H        1 UNL1     0.2921
     46 H         -2.149703   -0.86393   9.266951 H        1 UNL1     0.2922
     47 H         -0.384505   -1.92691   2.289377 H        1 UNL1     0.2126
     48 H         -1.20107   2.271241   0.09596 H        1 UNL1     0.2101
     49 H         1.483903   -0.102048   1.57079 H        1 UNL1     0.2100
     50 H         -1.231415   3.334148   2.123842 H        1 UNL1     0.2102
@<TRIPOS>BOND
     1     1     2    1
     2     1     6    1
     3     2     3    1
     4     3     4    1
     5     3    29    1
     6     3    33    1
     7     4     5    1
     8     5     6    1
     9     5     7    1
    10     5    35    1
    11     7     8    1
    12     8     9   ar
    13     8    13   ar
    14     9    10   ar
    15     9    36    1
    16    10    11   ar
    17    10    26    1
    18    11    12   ar
    19    11    14    1
    20    12    13   ar
    21    12    17    1
    22    13    37    1
    23    14    15    1
    24    14    25    2
    25    15    16    1
    26    15    38    1
    27    15    39    1
    28    16    17    1
    29    16    18    1
    30    16    40    1
    31    18    19   ar
    32    18    23   ar
    33    19    20   ar
    34    19    41    1
    35    20    21   ar
    36    20    42    1
    37    21    22   ar
    38    21    24    1
    39    22    23   ar
    40    22    43    1
    41    23    44    1
    42    24    45    1
    43    26    46    1
    44    27    47    1
    45    28    48    1
    46    29    49    1
    47    30    50    1
    48     1    31    1
    49     1    27    1
    50     2    32    1
    51     2    28    1
    52     4    34    1
    53     4    30    1
