@<TRIPOS>MOLECULE
*****
 50 53 0 0 0
SMALL
GASTEIGER

@<TRIPOS>ATOM
     1 C         -0.336204   -1.331643   1.698381 C.3        1 UNL1     0.1889
     2 C         -0.464717   -0.974856   0.193015 C.3        1 UNL1     0.1342
     3 C         -1.905099   -0.957932   -0.341289 C.3        1 UNL1     0.1174
     4 C         -2.794211   -2.016838   0.315457 C.3        1 UNL1     0.1456
     5 C         -2.643864   -2.046142   1.847416 C.3        1 UNL1     0.2326
     6 O         -1.27972   -2.268001   2.197785 O.3        1 UNL1     -0.3076
     7 O         -3.216825   -0.899404   2.501656 O.3        1 UNL1     -0.4605
     8 C         -3.755357   -1.123287   3.756003 C.ar        1 UNL1     0.1310
     9 C         -4.593356   -2.189604   4.099552 C.ar        1 UNL1     0.0226
     10 C         -5.075176   -2.339794   5.405383 C.ar        1 UNL1     0.1343
     11 C         -4.71106   -1.439693   6.405922 C.ar        1 UNL1     0.1007
     12 C         -3.907989   -0.347852   6.06571 C.ar        1 UNL1     0.1389
     13 C         -3.425799   -0.195586   4.752036 C.ar        1 UNL1     0.0229
     14 C         -5.122872   -1.597599   7.820005 C.2        1 UNL1     0.1740
     15 C         -4.461183   -0.670041   8.796402 C.3        1 UNL1     0.0520
     16 C         -4.36024   0.708721   8.158608 C.3        1 UNL1     0.1322
     17 O         -3.577343   0.656515   6.945588 O.3        1 UNL1     -0.4828
     18 C         -5.707338   1.420864   8.014028 C.ar        1 UNL1     -0.0067
     19 C         -6.052219   2.006084   6.778395 C.ar        1 UNL1     -0.0516
     20 C         -7.25529   2.705576   6.625777 C.ar        1 UNL1     -0.0198
     21 C         -8.116655   2.832919   7.700794 C.ar        1 UNL1     0.1169
     22 C         -7.820352   2.239167   8.920836 C.ar        1 UNL1     -0.0198
     23 C         -6.625931   1.523904   9.068525 C.ar        1 UNL1     -0.0516
     24 O         -9.26136   3.553464   7.525108 O.3        1 UNL1     -0.5068
     25 O         -5.891601   -2.474049   8.206497 O.2        1 UNL1     -0.2917
     26 O         -5.889538   -3.400842   5.674783 O.3        1 UNL1     -0.5058
     27 O         -0.229087   -0.19565   2.54149 O.3        1 UNL1     -0.3648
     28 O         0.264286   -1.953061   -0.57143 O.3        1 UNL1     -0.3841
     29 O         -2.459741   0.356711   -0.262442 O.3        1 UNL1     -0.3863
     30 O         -2.44908   -3.317144   -0.20969 O.3        1 UNL1     -0.3829
     31 H         0.62325   -1.846879   1.816954 H        1 UNL1     0.0937
     32 H         0.0   0.0   0.0 H        1 UNL1     0.0671
     33 H         -1.867762   -1.195013   -1.413724 H        1 UNL1     0.0649
     34 H         -3.84374   -1.835608   0.058465 H        1 UNL1     0.0683
     35 H         -3.200769   -2.941521   2.150783 H        1 UNL1     0.1085
     36 H         -4.867509   -2.953902   3.380658 H        1 UNL1     0.0691
     37 H         -2.803094   0.663712   4.512583 H        1 UNL1     0.0691
     38 H         -3.46855   -1.076128   9.01844 H        1 UNL1     0.0385
     39 H         -5.040297   -0.654828   9.726012 H        1 UNL1     0.0385
     40 H         -3.770551   1.33778   8.839103 H        1 UNL1     0.0789
     41 H         -5.38889   1.928054   5.921916 H        1 UNL1     0.0623
     42 H         -7.504405   3.162531   5.671237 H        1 UNL1     0.0654
     43 H         -8.494787   2.319898   9.764952 H        1 UNL1     0.0654
     44 H         -6.431511   1.064041   10.032668 H        1 UNL1     0.0623
     45 H         -9.017902   4.462944   7.287851 H        1 UNL1     0.2921
     46 H         -5.508049   -3.926666   6.395468 H        1 UNL1     0.2922
     47 H         0.513622   0.35855   2.263811 H        1 UNL1     0.2126
     48 H         1.199901   -1.878227   -0.301695 H        1 UNL1     0.2101
     49 H         -2.019227   0.939598   -0.901178 H        1 UNL1     0.2100
     50 H         -2.686841   -3.331348   -1.159943 H        1 UNL1     0.2102
@<TRIPOS>BOND
     1     1     2    1
     2     1     6    1
     3     2     3    1
     4     3     4    1
     5     3    29    1
     6     3    33    1
     7     4     5    1
     8     5     6    1
     9     5     7    1
    10     5    35    1
    11     7     8    1
    12     8     9   ar
    13     8    13   ar
    14     9    10   ar
    15     9    36    1
    16    10    11   ar
    17    10    26    1
    18    11    12   ar
    19    11    14    1
    20    12    13   ar
    21    12    17    1
    22    13    37    1
    23    14    15    1
    24    14    25    2
    25    15    16    1
    26    15    38    1
    27    15    39    1
    28    16    17    1
    29    16    18    1
    30    16    40    1
    31    18    19   ar
    32    18    23   ar
    33    19    20   ar
    34    19    41    1
    35    20    21   ar
    36    20    42    1
    37    21    22   ar
    38    21    24    1
    39    22    23   ar
    40    22    43    1
    41    23    44    1
    42    24    45    1
    43    26    46    1
    44    27    47    1
    45    28    48    1
    46    29    49    1
    47    30    50    1
    48     1    31    1
    49     1    27    1
    50     2    32    1
    51     2    28    1
    52     4    34    1
    53     4    30    1
