@<TRIPOS>MOLECULE
*****
 50 53 0 0 0
SMALL
GASTEIGER

@<TRIPOS>ATOM
     1 C         0.58921   -2.024728   0.569309 C.3        1 UNL1     0.1889
     2 C         -0.291829   -1.031157   -0.234761 C.3        1 UNL1     0.1342
     3 C         -1.803564   -1.187676   -0.009762 C.3        1 UNL1     0.1174
     4 C         -2.223477   -2.643345   0.208915 C.3        1 UNL1     0.1456
     5 C         -1.313363   -3.375902   1.21162 C.3        1 UNL1     0.2326
     6 O         0.041108   -3.319224   0.769959 O.3        1 UNL1     -0.3076
     7 O         -1.484474   -2.933374   2.570373 O.3        1 UNL1     -0.4605
     8 C         -1.28808   -3.891003   3.549099 C.ar        1 UNL1     0.1310
     9 C         -1.795487   -5.194476   3.520858 C.ar        1 UNL1     0.0226
     10 C         -1.526058   -6.098565   4.555234 C.ar        1 UNL1     0.1343
     11 C         -0.722146   -5.728127   5.632425 C.ar        1 UNL1     0.1007
     12 C         -0.243596   -4.416555   5.69204 C.ar        1 UNL1     0.1389
     13 C         -0.516834   -3.506884   4.653161 C.ar        1 UNL1     0.0229
     14 C         -0.336547   -6.668214   6.710248 C.2        1 UNL1     0.1740
     15 C         0.708389   -6.1688   7.664316 C.3        1 UNL1     0.0520
     16 C         0.424325   -4.703861   7.966339 C.3        1 UNL1     0.1322
     17 O         0.46616   -3.913635   6.757677 O.3        1 UNL1     -0.4828
     18 C         -0.822467   -4.482511   8.826128 C.ar        1 UNL1     -0.0067
     19 C         -1.097353   -3.194058   9.328661 C.ar        1 UNL1     -0.0516
     20 C         -2.20293   -2.966881   10.156945 C.ar        1 UNL1     -0.0198
     21 C         -3.035157   -4.01892   10.495232 C.ar        1 UNL1     0.1169
     22 C         -2.809626   -5.292353   9.988928 C.ar        1 UNL1     -0.0198
     23 C         -1.714656   -5.516082   9.145696 C.ar        1 UNL1     -0.0516
     24 O         -4.080301   -3.767145   11.334687 O.3        1 UNL1     -0.5068
     25 O         -0.767961   -7.815145   6.793415 O.2        1 UNL1     -0.2917
     26 O         -2.051853   -7.35455   4.467904 O.3        1 UNL1     -0.5058
     27 O         1.099593   -1.479351   1.775485 O.3        1 UNL1     -0.3648
     28 O         -0.044274   -1.234837   -1.638305 O.3        1 UNL1     -0.3841
     29 O         -2.253718   -0.319334   1.032099 O.3        1 UNL1     -0.3863
     30 O         -2.181106   -3.343381   -1.05356 O.3        1 UNL1     -0.3829
     31 H         1.480299   -2.215387   -0.038709 H        1 UNL1     0.0937
     32 H         0.0   0.0   0.0 H        1 UNL1     0.0671
     33 H         -2.315431   -0.842403   -0.918882 H        1 UNL1     0.0649
     34 H         -3.259264   -2.684528   0.563666 H        1 UNL1     0.0683
     35 H         -1.629086   -4.424163   1.138504 H        1 UNL1     0.1085
     36 H         -2.380429   -5.560666   2.684276 H        1 UNL1     0.0691
     37 H         -0.133508   -2.491232   4.723913 H        1 UNL1     0.0691
     38 H         1.683562   -6.290497   7.180835 H        1 UNL1     0.0385
     39 H         0.694876   -6.787992   8.567752 H        1 UNL1     0.0385
     40 H         1.262937   -4.328998   8.568607 H        1 UNL1     0.0789
     41 H         -0.454084   -2.353481   9.085175 H        1 UNL1     0.0623
     42 H         -2.397496   -1.971184   10.547768 H        1 UNL1     0.0654
     43 H         -3.463638   -6.120291   10.235297 H        1 UNL1     0.0654
     44 H         -1.574657   -6.521255   8.759854 H        1 UNL1     0.0623
     45 H         -3.723391   -3.512246   12.200919 H        1 UNL1     0.2921
     46 H         -1.339495   -8.009269   4.540717 H        1 UNL1     0.2922
     47 H         1.576425   -0.657051   1.595726 H        1 UNL1     0.2126
     48 H         0.844501   -0.873608   -1.820858 H        1 UNL1     0.2101
     49 H         -2.383461   0.576463   0.682086 H        1 UNL1     0.2100
     50 H         -2.884602   -2.974254   -1.626754 H        1 UNL1     0.2102
@<TRIPOS>BOND
     1     1     2    1
     2     1     6    1
     3     2     3    1
     4     3     4    1
     5     3    29    1
     6     3    33    1
     7     4     5    1
     8     5     6    1
     9     5     7    1
    10     5    35    1
    11     7     8    1
    12     8     9   ar
    13     8    13   ar
    14     9    10   ar
    15     9    36    1
    16    10    11   ar
    17    10    26    1
    18    11    12   ar
    19    11    14    1
    20    12    13   ar
    21    12    17    1
    22    13    37    1
    23    14    15    1
    24    14    25    2
    25    15    16    1
    26    15    38    1
    27    15    39    1
    28    16    17    1
    29    16    18    1
    30    16    40    1
    31    18    19   ar
    32    18    23   ar
    33    19    20   ar
    34    19    41    1
    35    20    21   ar
    36    20    42    1
    37    21    22   ar
    38    21    24    1
    39    22    23   ar
    40    22    43    1
    41    23    44    1
    42    24    45    1
    43    26    46    1
    44    27    47    1
    45    28    48    1
    46    29    49    1
    47    30    50    1
    48     1    31    1
    49     1    27    1
    50     2    32    1
    51     2    28    1
    52     4    34    1
    53     4    30    1
