@<TRIPOS>MOLECULE
*****
 50 53 0 0 0
SMALL
GASTEIGER

@<TRIPOS>ATOM
     1 C         -1.576558   -0.933159   1.18932 C.3        1 UNL1     0.1889
     2 C         -1.094933   0.022418   0.064665 C.3        1 UNL1     0.1342
     3 C         -1.558074   1.479182   0.218952 C.3        1 UNL1     0.1174
     4 C         -2.955328   1.595849   0.833107 C.3        1 UNL1     0.1456
     5 C         -3.132965   0.697419   2.070699 C.3        1 UNL1     0.2326
     6 O         -2.861249   -0.659896   1.729037 O.3        1 UNL1     -0.3076
     7 O         -2.393389   1.150804   3.219085 O.3        1 UNL1     -0.4605
     8 C         -3.112307   1.867299   4.158936 C.ar        1 UNL1     0.1310
     9 C         -4.025576   2.888298   3.874683 C.ar        1 UNL1     0.0226
     10 C         -4.71906   3.544717   4.898449 C.ar        1 UNL1     0.1343
     11 C         -4.533561   3.179424   6.231113 C.ar        1 UNL1     0.1007
     12 C         -3.593855   2.189384   6.530374 C.ar        1 UNL1     0.1389
     13 C         -2.89474   1.531328   5.50099 C.ar        1 UNL1     0.0229
     14 C         -5.301341   3.781654   7.345557 C.2        1 UNL1     0.1740
     15 C         -5.136828   3.117298   8.68089 C.3        1 UNL1     0.0520
     16 C         -3.672532   2.737577   8.852957 C.3        1 UNL1     0.1322
     17 O         -3.253347   1.826757   7.81288 O.3        1 UNL1     -0.4828
     18 C         -2.744673   3.937625   9.05713 C.ar        1 UNL1     -0.0067
     19 C         -1.377276   3.718517   9.322522 C.ar        1 UNL1     -0.0516
     20 C         -0.510834   4.791999   9.56101 C.ar        1 UNL1     -0.0198
     21 C         -0.999904   6.085968   9.544192 C.ar        1 UNL1     0.1169
     22 C         -2.334664   6.335618   9.252765 C.ar        1 UNL1     -0.0198
     23 C         -3.197478   5.26338   8.996026 C.ar        1 UNL1     -0.0516
     24 O         -0.134186   7.103694   9.818354 O.3        1 UNL1     -0.5068
     25 O         -6.089339   4.712198   7.198479 O.2        1 UNL1     -0.2917
     26 O         -5.594993   4.532574   4.554262 O.3        1 UNL1     -0.5058
     27 O         -0.612202   -1.136593   2.209819 O.3        1 UNL1     -0.3648
     28 O         -1.60579   -0.458646   -1.192438 O.3        1 UNL1     -0.3841
     29 O         -0.579782   2.250857   0.918662 O.3        1 UNL1     -0.3863
     30 O         -3.939993   1.223776   -0.155673 O.3        1 UNL1     -0.3829
     31 H         -1.696283   -1.920789   0.7307 H        1 UNL1     0.0937
     32 H         0.0   0.0   0.0 H        1 UNL1     0.0671
     33 H         -1.614533   1.921293   -0.785573 H        1 UNL1     0.0649
     34 H         -3.156458   2.636677   1.109918 H        1 UNL1     0.0683
     35 H         -4.205569   0.761882   2.292609 H        1 UNL1     0.1085
     36 H         -4.255572   3.180267   2.855872 H        1 UNL1     0.0691
     37 H         -2.167672   0.764803   5.76042 H        1 UNL1     0.0691
     38 H         -5.778731   2.229947   8.690646 H        1 UNL1     0.0385
     39 H         -5.482918   3.798462   9.465756 H        1 UNL1     0.0385
     40 H         -3.59685   2.150957   9.778522 H        1 UNL1     0.0789
     41 H         -0.970742   2.711735   9.350299 H        1 UNL1     0.0623
     42 H         0.53909   4.609405   9.776254 H        1 UNL1     0.0654
     43 H         -2.724967   7.345885   9.222184 H        1 UNL1     0.0654
     44 H         -4.231804   5.49572   8.761435 H        1 UNL1     0.0623
     45 H         0.286777   6.925862   10.675023 H        1 UNL1     0.2921
     46 H         -5.354666   5.352618   5.013807 H        1 UNL1     0.2922
     47 H         0.208226   -0.672318   1.992546 H        1 UNL1     0.2126
     48 H         -0.843217   -0.818988   -1.684748 H        1 UNL1     0.2101
     49 H         0.300318   2.085278   0.54476 H        1 UNL1     0.2100
     50 H         -4.724753   0.875861   0.316365 H        1 UNL1     0.2102
@<TRIPOS>BOND
     1     1     2    1
     2     1     6    1
     3     2     3    1
     4     3     4    1
     5     3    29    1
     6     3    33    1
     7     4     5    1
     8     5     6    1
     9     5     7    1
    10     5    35    1
    11     7     8    1
    12     8     9   ar
    13     8    13   ar
    14     9    10   ar
    15     9    36    1
    16    10    11   ar
    17    10    26    1
    18    11    12   ar
    19    11    14    1
    20    12    13   ar
    21    12    17    1
    22    13    37    1
    23    14    15    1
    24    14    25    2
    25    15    16    1
    26    15    38    1
    27    15    39    1
    28    16    17    1
    29    16    18    1
    30    16    40    1
    31    18    19   ar
    32    18    23   ar
    33    19    20   ar
    34    19    41    1
    35    20    21   ar
    36    20    42    1
    37    21    22   ar
    38    21    24    1
    39    22    23   ar
    40    22    43    1
    41    23    44    1
    42    24    45    1
    43    26    46    1
    44    27    47    1
    45    28    48    1
    46    29    49    1
    47    30    50    1
    48     1    31    1
    49     1    27    1
    50     2    32    1
    51     2    28    1
    52     4    34    1
    53     4    30    1
