@<TRIPOS>MOLECULE
*****
 50 53 0 0 0
SMALL
GASTEIGER

@<TRIPOS>ATOM
     1 C         -0.360207   -1.342705   1.684695 C.3        1 UNL1     0.1889
     2 C         -0.477666   -0.970686   0.182116 C.3        1 UNL1     0.1342
     3 C         -1.915368   -0.930914   -0.358157 C.3        1 UNL1     0.1174
     4 C         -2.820472   -1.984548   0.285086 C.3        1 UNL1     0.1456
     5 C         -2.677219   -2.029637   1.817342 C.3        1 UNL1     0.2326
     6 O         -1.317494   -2.271697   2.171492 O.3        1 UNL1     -0.3076
     7 O         -3.238714   -0.881817   2.479576 O.3        1 UNL1     -0.4605
     8 C         -3.75835   -1.104327   3.742111 C.ar        1 UNL1     0.1310
     9 C         -4.592346   -2.1694   4.099001 C.ar        1 UNL1     0.0226
     10 C         -5.0544   -2.31826   5.412108 C.ar        1 UNL1     0.1343
     11 C         -4.673959   -1.418061   6.406465 C.ar        1 UNL1     0.1007
     12 C         -3.874805   -0.327418   6.05343 C.ar        1 UNL1     0.1389
     13 C         -3.412498   -0.176488   4.732474 C.ar        1 UNL1     0.0229
     14 C         -5.064374   -1.574664   7.826749 C.2        1 UNL1     0.1740
     15 C         -4.386728   -0.647395   8.792419 C.3        1 UNL1     0.0520
     16 C         -4.293795   0.730885   8.152368 C.3        1 UNL1     0.1322
     17 O         -3.529538   0.677022   6.927591 O.3        1 UNL1     -0.4828
     18 C         -5.642051   1.444638   8.02792 C.ar        1 UNL1     -0.0067
     19 C         -6.005394   2.028795   6.797085 C.ar        1 UNL1     -0.0516
     20 C         -7.209782   2.729697   6.66237 C.ar        1 UNL1     -0.0198
     21 C         -8.054109   2.859506   7.750528 C.ar        1 UNL1     0.1169
     22 C         -7.739594   2.266862   8.966542 C.ar        1 UNL1     -0.0198
     23 C         -6.543952   1.550195   9.096483 C.ar        1 UNL1     -0.0516
     24 O         -9.200471   3.581353   7.591811 O.3        1 UNL1     -0.5068
     25 O         -5.828217   -2.449933   8.225413 O.2        1 UNL1     -0.2917
     26 O         -5.865886   -3.378135   5.694494 O.3        1 UNL1     -0.5058
     27 O         -0.242646   -0.215842   2.538596 O.3        1 UNL1     -0.3648
     28 O         0.242441   -1.950941   -0.588112 O.3        1 UNL1     -0.3841
     29 O         -2.453933   0.389787   -0.269674 O.3        1 UNL1     -0.3863
     30 O         -2.489265   -3.284242   -0.250438 O.3        1 UNL1     -0.3829
     31 H         0.592226   -1.870945   1.802653 H        1 UNL1     0.0937
     32 H         0.0   0.0   0.0 H        1 UNL1     0.0671
     33 H         -1.876286   -1.158695   -1.432544 H        1 UNL1     0.0649
     34 H         -3.866526   -1.787891   0.025281 H        1 UNL1     0.0683
     35 H         -3.246558   -2.920706   2.110136 H        1 UNL1     0.1085
     36 H         -4.878374   -2.933753   3.384807 H        1 UNL1     0.0691
     37 H         -2.792443   0.681895   4.483067 H        1 UNL1     0.0691
     38 H         -3.391334   -1.054605   8.999539 H        1 UNL1     0.0385
     39 H         -4.951591   -0.630939   9.730735 H        1 UNL1     0.0385
     40 H         -3.693023   1.35958   8.823437 H        1 UNL1     0.0789
     41 H         -5.355604   1.94883   5.930465 H        1 UNL1     0.0623
     42 H         -7.473154   3.185807   5.71126 H        1 UNL1     0.0654
     43 H         -8.400677   2.349526   9.82097 H        1 UNL1     0.0654
     44 H         -6.335122   1.091261   10.058052 H        1 UNL1     0.0623
     45 H         -8.9597   4.488782   7.344184 H        1 UNL1     0.2921
     46 H         -5.473431   -3.904813   6.408638 H        1 UNL1     0.2922
     47 H         0.509782   0.330077   2.270857 H        1 UNL1     0.2126
     48 H         1.174748   -1.902035   -0.301504 H        1 UNL1     0.2101
     49 H         -2.003278   0.97294   -0.90105 H        1 UNL1     0.2100
     50 H         -2.717764   -3.284979   -1.203066 H        1 UNL1     0.2102
@<TRIPOS>BOND
     1     1     2    1
     2     1     6    1
     3     2     3    1
     4     3     4    1
     5     3    29    1
     6     3    33    1
     7     4     5    1
     8     5     6    1
     9     5     7    1
    10     5    35    1
    11     7     8    1
    12     8     9   ar
    13     8    13   ar
    14     9    10   ar
    15     9    36    1
    16    10    11   ar
    17    10    26    1
    18    11    12   ar
    19    11    14    1
    20    12    13   ar
    21    12    17    1
    22    13    37    1
    23    14    15    1
    24    14    25    2
    25    15    16    1
    26    15    38    1
    27    15    39    1
    28    16    17    1
    29    16    18    1
    30    16    40    1
    31    18    19   ar
    32    18    23   ar
    33    19    20   ar
    34    19    41    1
    35    20    21   ar
    36    20    42    1
    37    21    22   ar
    38    21    24    1
    39    22    23   ar
    40    22    43    1
    41    23    44    1
    42    24    45    1
    43    26    46    1
    44    27    47    1
    45    28    48    1
    46    29    49    1
    47    30    50    1
    48     1    31    1
    49     1    27    1
    50     2    32    1
    51     2    28    1
    52     4    34    1
    53     4    30    1
