@<TRIPOS>MOLECULE
*****
 50 53 0 0 0
SMALL
GASTEIGER

@<TRIPOS>ATOM
     1 C         -0.79815   -0.795666   1.87101 C.3        1 UNL1     0.1889
     2 C         0.326046   -0.666282   0.808285 C.3        1 UNL1     0.1342
     3 C         0.791798   -1.998939   0.202015 C.3        1 UNL1     0.1174
     4 C         0.762451   -3.151498   1.208924 C.3        1 UNL1     0.1456
     5 C         -0.549236   -3.198937   2.013654 C.3        1 UNL1     0.2326
     6 O         -0.752427   -1.957916   2.685552 O.3        1 UNL1     -0.3076
     7 O         -1.685684   -3.612754   1.233549 O.3        1 UNL1     -0.4605
     8 C         -1.407451   -4.381055   0.117383 C.ar        1 UNL1     0.1310
     9 C         -2.294181   -5.274774   -0.492761 C.ar        1 UNL1     0.0226
     10 C         -1.923462   -5.996787   -1.633449 C.ar        1 UNL1     0.1343
     11 C         -0.66402   -5.824645   -2.206173 C.ar        1 UNL1     0.1007
     12 C         0.244589   -4.965715   -1.582112 C.ar        1 UNL1     0.1389
     13 C         -0.127484   -4.241837   -0.433638 C.ar        1 UNL1     0.0229
     14 C         -0.249967   -6.498542   -3.458601 C.2        1 UNL1     0.1740
     15 C         1.046807   -6.029519   -4.050163 C.3        1 UNL1     0.0520
     16 C         2.038556   -5.801815   -2.91767 C.3        1 UNL1     0.1322
     17 O         1.545792   -4.802941   -1.997614 O.3        1 UNL1     -0.4828
     18 C         2.521937   -7.093048   -2.253 C.ar        1 UNL1     -0.0067
     19 C         3.842265   -7.534686   -2.476392 C.ar        1 UNL1     -0.0516
     20 C         4.301485   -8.735511   -1.922226 C.ar        1 UNL1     -0.0198
     21 C         3.449803   -9.505662   -1.150649 C.ar        1 UNL1     0.1169
     22 C         2.15451   -9.080713   -0.885179 C.ar        1 UNL1     -0.0198
     23 C         1.700804   -7.870811   -1.424014 C.ar        1 UNL1     -0.0516
     24 O         3.920435   -10.687651   -0.658907 O.3        1 UNL1     -0.5068
     25 O         -0.941536   -7.331399   -4.038744 O.2        1 UNL1     -0.2917
     26 O         -2.834478   -6.85318   -2.179549 O.3        1 UNL1     -0.5058
     27 O         -2.098279   -0.573025   1.348629 O.3        1 UNL1     -0.3648
     28 O         1.471956   -0.054187   1.428719 O.3        1 UNL1     -0.3841
     29 O         0.068664   -2.291522   -0.995317 O.3        1 UNL1     -0.3863
     30 O         1.866194   -3.005203   2.128728 O.3        1 UNL1     -0.3829
     31 H         -0.650254   0.022723   2.584062 H        1 UNL1     0.0937
     32 H         0.0   0.0   -0.0 H        1 UNL1     0.0671
     33 H         1.838079   -1.877303   -0.111388 H        1 UNL1     0.0649
     34 H         0.902618   -4.105785   0.689221 H        1 UNL1     0.0683
     35 H         -0.357745   -3.952939   2.787405 H        1 UNL1     0.1085
     36 H         -3.306589   -5.411394   -0.128776 H        1 UNL1     0.0691
     37 H         0.598675   -3.580378   0.033971 H        1 UNL1     0.0691
     38 H         0.846207   -5.099368   -4.592477 H        1 UNL1     0.0385
     39 H         1.403549   -6.774664   -4.76938 H        1 UNL1     0.0385
     40 H         2.936284   -5.348843   -3.359734 H        1 UNL1     0.0789
     41 H         4.527468   -6.95277   -3.085918 H        1 UNL1     0.0623
     42 H         5.318074   -9.071215   -2.111592 H        1 UNL1     0.0654
     43 H         1.483939   -9.668645   -0.26989 H        1 UNL1     0.0654
     44 H         0.686447   -7.564326   -1.187389 H        1 UNL1     0.0623
     45 H         4.471487   -11.105641   -1.340335 H        1 UNL1     0.2921
     46 H         -2.79858   -7.703684   -1.713966 H        1 UNL1     0.2922
     47 H         -2.160994   0.31699   0.97473 H        1 UNL1     0.2126
     48 H         1.574759   0.826379   1.019124 H        1 UNL1     0.2101
     49 H         0.307179   -3.175412   -1.317254 H        1 UNL1     0.2100
     50 H         2.688081   -2.920416   1.602396 H        1 UNL1     0.2102
@<TRIPOS>BOND
     1     1     2    1
     2     1     6    1
     3     2     3    1
     4     3     4    1
     5     3    29    1
     6     3    33    1
     7     4     5    1
     8     5     6    1
     9     5     7    1
    10     5    35    1
    11     7     8    1
    12     8     9   ar
    13     8    13   ar
    14     9    10   ar
    15     9    36    1
    16    10    11   ar
    17    10    26    1
    18    11    12   ar
    19    11    14    1
    20    12    13   ar
    21    12    17    1
    22    13    37    1
    23    14    15    1
    24    14    25    2
    25    15    16    1
    26    15    38    1
    27    15    39    1
    28    16    17    1
    29    16    18    1
    30    16    40    1
    31    18    19   ar
    32    18    23   ar
    33    19    20   ar
    34    19    41    1
    35    20    21   ar
    36    20    42    1
    37    21    22   ar
    38    21    24    1
    39    22    23   ar
    40    22    43    1
    41    23    44    1
    42    24    45    1
    43    26    46    1
    44    27    47    1
    45    28    48    1
    46    29    49    1
    47    30    50    1
    48     1    31    1
    49     1    27    1
    50     2    32    1
    51     2    28    1
    52     4    34    1
    53     4    30    1
