@<TRIPOS>MOLECULE
*****
 50 53 0 0 0
SMALL
GASTEIGER

@<TRIPOS>ATOM
     1 C         -1.021079   1.880981   -0.436018 C.3        1 UNL1     0.1889
     2 C         0.070875   1.054318   0.294876 C.3        1 UNL1     0.1342
     3 C         0.028848   1.149855   1.827707 C.3        1 UNL1     0.1174
     4 C         -0.404688   2.531255   2.324594 C.3        1 UNL1     0.1456
     5 C         -1.64377   3.063569   1.581842 C.3        1 UNL1     0.2326
     6 O         -1.388752   3.106581   0.179706 O.3        1 UNL1     -0.3076
     7 O         -2.856446   2.363857   1.915219 O.3        1 UNL1     -0.4605
     8 C         -2.722638   1.013825   2.185475 C.ar        1 UNL1     0.1310
     9 C         -2.258386   0.049215   1.284754 C.ar        1 UNL1     0.0226
     10 C         -2.142206   -1.294609   1.659644 C.ar        1 UNL1     0.1343
     11 C         -2.465247   -1.70282   2.95303 C.ar        1 UNL1     0.1007
     12 C         -2.968822   -0.755887   3.848862 C.ar        1 UNL1     0.1389
     13 C         -3.088048   0.59479   3.470856 C.ar        1 UNL1     0.0229
     14 C         -2.282204   -3.093961   3.427767 C.2        1 UNL1     0.1740
     15 C         -2.467019   -3.306665   4.901588 C.3        1 UNL1     0.0520
     16 C         -3.651844   -2.469969   5.364283 C.3        1 UNL1     0.1322
     17 O         -3.418848   -1.066888   5.111011 O.3        1 UNL1     -0.4828
     18 C         -5.003629   -2.988315   4.867576 C.ar        1 UNL1     -0.0067
     19 C         -6.191241   -2.422218   5.374849 C.ar        1 UNL1     -0.0516
     20 C         -7.443884   -2.904843   4.977455 C.ar        1 UNL1     -0.0198
     21 C         -7.522058   -3.955621   4.081028 C.ar        1 UNL1     0.1169
     22 C         -6.370887   -4.51171   3.538432 C.ar        1 UNL1     -0.0198
     23 C         -5.118463   -4.017051   3.92158 C.ar        1 UNL1     -0.0516
     24 O         -8.758576   -4.423947   3.746223 O.3        1 UNL1     -0.5068
     25 O         -1.924077   -4.015447   2.699006 O.2        1 UNL1     -0.2917
     26 O         -1.683988   -2.185694   0.733583 O.3        1 UNL1     -0.5058
     27 O         -2.158919   1.116467   -0.801563 O.3        1 UNL1     -0.3648
     28 O         1.362315   1.529171   -0.128683 O.3        1 UNL1     -0.3841
     29 O         -0.756249   0.091405   2.380373 O.3        1 UNL1     -0.3863
     30 O         0.682757   3.463633   2.140677 O.3        1 UNL1     -0.3829
     31 H         -0.588334   2.194557   -1.392304 H        1 UNL1     0.0937
     32 H         0.0   -0.0   0.0 H        1 UNL1     0.0671
     33 H         1.048479   0.983001   2.202182 H        1 UNL1     0.0649
     34 H         -0.615821   2.49294   3.399004 H        1 UNL1     0.0683
     35 H         -1.730017   4.103029   1.922375 H        1 UNL1     0.1085
     36 H         -1.93836   0.312125   0.282465 H        1 UNL1     0.0691
     37 H         -3.483859   1.312204   4.186498 H        1 UNL1     0.0691
     38 H         -1.543476   -2.993066   5.399837 H        1 UNL1     0.0385
     39 H         -2.613981   -4.374837   5.094434 H        1 UNL1     0.0385
     40 H         -3.69524   -2.547824   6.459078 H        1 UNL1     0.0789
     41 H         -6.156545   -1.602597   6.086655 H        1 UNL1     0.0623
     42 H         -8.352221   -2.467829   5.38483 H        1 UNL1     0.0654
     43 H         -6.420972   -5.324931   2.824238 H        1 UNL1     0.0654
     44 H         -4.240313   -4.468139   3.469675 H        1 UNL1     0.0623
     45 H         -9.386884   -4.14981   4.433824 H        1 UNL1     0.2921
     46 H         -1.029017   -2.771623   1.144815 H        1 UNL1     0.2922
     47 H         -2.228204   1.058803   -1.764753 H        1 UNL1     0.2126
     48 H         1.8808   1.69099   0.682933 H        1 UNL1     0.2101
     49 H         -0.196788   -0.685036   2.54142 H        1 UNL1     0.2100
     50 H         0.393517   4.335264   2.481723 H        1 UNL1     0.2102
@<TRIPOS>BOND
     1     1     2    1
     2     1     6    1
     3     2     3    1
     4     3     4    1
     5     3    29    1
     6     3    33    1
     7     4     5    1
     8     5     6    1
     9     5     7    1
    10     5    35    1
    11     7     8    1
    12     8     9   ar
    13     8    13   ar
    14     9    10   ar
    15     9    36    1
    16    10    11   ar
    17    10    26    1
    18    11    12   ar
    19    11    14    1
    20    12    13   ar
    21    12    17    1
    22    13    37    1
    23    14    15    1
    24    14    25    2
    25    15    16    1
    26    15    38    1
    27    15    39    1
    28    16    17    1
    29    16    18    1
    30    16    40    1
    31    18    19   ar
    32    18    23   ar
    33    19    20   ar
    34    19    41    1
    35    20    21   ar
    36    20    42    1
    37    21    22   ar
    38    21    24    1
    39    22    23   ar
    40    22    43    1
    41    23    44    1
    42    24    45    1
    43    26    46    1
    44    27    47    1
    45    28    48    1
    46    29    49    1
    47    30    50    1
    48     1    31    1
    49     1    27    1
    50     2    32    1
    51     2    28    1
    52     4    34    1
    53     4    30    1
