@<TRIPOS>MOLECULE
*****
 50 53 0 0 0
SMALL
GASTEIGER

@<TRIPOS>ATOM
     1 C         -0.293943   -0.102445   2.161922 C.3        1 UNL1     0.1889
     2 C         -0.799404   0.197142   0.725017 C.3        1 UNL1     0.1342
     3 C         -1.325349   1.625339   0.515013 C.3        1 UNL1     0.1174
     4 C         -2.032226   2.18535   1.751875 C.3        1 UNL1     0.1456
     5 C         -1.235378   1.944125   3.046945 C.3        1 UNL1     0.2326
     6 O         -0.989906   0.549599   3.214001 O.3        1 UNL1     -0.3076
     7 O         -0.042942   2.744158   3.143711 O.3        1 UNL1     -0.4605
     8 C         1.095826   2.206629   2.571174 C.ar        1 UNL1     0.1310
     9 C         2.04275   1.419701   3.235539 C.ar        1 UNL1     0.0226
     10 C         3.157471   0.905935   2.562232 C.ar        1 UNL1     0.1343
     11 C         3.339979   1.147125   1.201218 C.ar        1 UNL1     0.1007
     12 C         2.422895   1.965551   0.536448 C.ar        1 UNL1     0.1389
     13 C         1.30354   2.484204   1.214293 C.ar        1 UNL1     0.0229
     14 C         4.45428   0.559972   0.421642 C.2        1 UNL1     0.1740
     15 C         4.371807   0.740268   -1.065718 C.3        1 UNL1     0.0520
     16 C         3.870848   2.148932   -1.353235 C.3        1 UNL1     0.1322
     17 O         2.563245   2.356143   -0.775042 O.3        1 UNL1     -0.4828
     18 C         4.889485   3.243746   -1.026915 C.ar        1 UNL1     -0.0067
     19 C         6.178881   2.880963   -0.586392 C.ar        1 UNL1     -0.0516
     20 C         7.118759   3.857012   -0.234372 C.ar        1 UNL1     -0.0198
     21 C         6.779797   5.196046   -0.311326 C.ar        1 UNL1     0.1169
     22 C         5.529268   5.585354   -0.773336 C.ar        1 UNL1     -0.0198
     23 C         4.595467   4.609937   -1.142976 C.ar        1 UNL1     -0.0516
     24 O         7.708268   6.117163   0.075825 O.3        1 UNL1     -0.5068
     25 O         5.3558   -0.10441   0.925965 O.2        1 UNL1     -0.2917
     26 O         4.044406   0.146576   3.26814 O.3        1 UNL1     -0.5058
     27 O         1.111663   0.026248   2.305092 O.3        1 UNL1     -0.3648
     28 O         -1.879623   -0.705749   0.423983 O.3        1 UNL1     -0.3841
     29 O         -0.287445   2.482455   0.03518 O.3        1 UNL1     -0.3863
     30 O         -3.327708   1.560218   1.880821 O.3        1 UNL1     -0.3829
     31 H         -0.487656   -1.164737   2.346551 H        1 UNL1     0.0937
     32 H         0.0   0.0   0.0 H        1 UNL1     0.0671
     33 H         -2.072343   1.592572   -0.290373 H        1 UNL1     0.0649
     34 H         -2.205766   3.260135   1.628904 H        1 UNL1     0.0683
     35 H         -1.928041   2.243712   3.843403 H        1 UNL1     0.1085
     36 H         1.928443   1.149942   4.279706 H        1 UNL1     0.0691
     37 H         0.604823   3.119612   0.674346 H        1 UNL1     0.0691
     38 H         3.676879   -0.012692   -1.452568 H        1 UNL1     0.0385
     39 H         5.357655   0.553676   -1.50511 H        1 UNL1     0.0385
     40 H         3.706077   2.218997   -2.436961 H        1 UNL1     0.0789
     41 H         6.466342   1.836472   -0.508565 H        1 UNL1     0.0623
     42 H         8.105743   3.564318   0.115208 H        1 UNL1     0.0654
     43 H         5.258547   6.631518   -0.851821 H        1 UNL1     0.0654
     44 H         3.631781   4.950167   -1.509578 H        1 UNL1     0.0623
     45 H         7.905284   5.977452   1.016241 H        1 UNL1     0.2921
     46 H         4.380587   -0.567121   2.703311 H        1 UNL1     0.2922
     47 H         1.565566   -0.455311   1.599448 H        1 UNL1     0.2126
     48 H         -1.483453   -1.592957   0.325775 H        1 UNL1     0.2101
     49 H         0.300162   2.730575   0.766582 H        1 UNL1     0.2100
     50 H         -3.476378   1.007736   1.085602 H        1 UNL1     0.2102
@<TRIPOS>BOND
     1     1     2    1
     2     1     6    1
     3     2     3    1
     4     3     4    1
     5     3    29    1
     6     3    33    1
     7     4     5    1
     8     5     6    1
     9     5     7    1
    10     5    35    1
    11     7     8    1
    12     8     9   ar
    13     8    13   ar
    14     9    10   ar
    15     9    36    1
    16    10    11   ar
    17    10    26    1
    18    11    12   ar
    19    11    14    1
    20    12    13   ar
    21    12    17    1
    22    13    37    1
    23    14    15    1
    24    14    25    2
    25    15    16    1
    26    15    38    1
    27    15    39    1
    28    16    17    1
    29    16    18    1
    30    16    40    1
    31    18    19   ar
    32    18    23   ar
    33    19    20   ar
    34    19    41    1
    35    20    21   ar
    36    20    42    1
    37    21    22   ar
    38    21    24    1
    39    22    23   ar
    40    22    43    1
    41    23    44    1
    42    24    45    1
    43    26    46    1
    44    27    47    1
    45    28    48    1
    46    29    49    1
    47    30    50    1
    48     1    31    1
    49     1    27    1
    50     2    32    1
    51     2    28    1
    52     4    34    1
    53     4    30    1
