@<TRIPOS>MOLECULE
*****
 50 53 0 0 0
SMALL
GASTEIGER

@<TRIPOS>ATOM
     1 C         -0.369146   -1.397304   1.637705 C.3        1 UNL1     0.1889
     2 C         -0.487024   -0.97161   0.149474 C.3        1 UNL1     0.1342
     3 C         -1.925758   -0.898395   -0.38452 C.3        1 UNL1     0.1174
     4 C         -2.839747   -1.964769   0.224239 C.3        1 UNL1     0.1456
     5 C         -2.69266   -2.065053   1.75351 C.3        1 UNL1     0.2326
     6 O         -1.334484   -2.333102   2.09465 O.3        1 UNL1     -0.3076
     7 O         -3.240562   -0.935576   2.457362 O.3        1 UNL1     -0.4605
     8 C         -3.769126   -1.199042   3.708255 C.ar        1 UNL1     0.1310
     9 C         -4.611679   -2.270757   4.022627 C.ar        1 UNL1     0.0226
     10 C         -5.082522   -2.462756   5.326984 C.ar        1 UNL1     0.1343
     11 C         -4.702639   -1.600436   6.35457 C.ar        1 UNL1     0.1007
     12 C         -3.894795   -0.503085   6.044747 C.ar        1 UNL1     0.1389
     13 C         -3.423639   -0.308743   4.732621 C.ar        1 UNL1     0.0229
     14 C         -5.102537   -1.804386   7.766179 C.2        1 UNL1     0.1740
     15 C         -4.425124   -0.915864   8.767773 C.3        1 UNL1     0.0520
     16 C         -4.320009   0.483439   8.177131 C.3        1 UNL1     0.1322
     17 O         -3.548731   0.467852   6.955674 O.3        1 UNL1     -0.4828
     18 C         -5.663151   1.20954   8.070033 C.ar        1 UNL1     -0.0067
     19 C         -5.759848   2.374138   7.280998 C.ar        1 UNL1     -0.0516
     20 C         -6.960902   3.088819   7.199378 C.ar        1 UNL1     -0.0198
     21 C         -8.067856   2.654323   7.906269 C.ar        1 UNL1     0.1169
     22 C         -8.013142   1.492491   8.665209 C.ar        1 UNL1     -0.0198
     23 C         -6.817404   0.767393   8.732302 C.ar        1 UNL1     -0.0516
     24 O         -9.20948   3.397063   7.832553 O.3        1 UNL1     -0.5068
     25 O         -5.874045   -2.688324   8.12938 O.2        1 UNL1     -0.2917
     26 O         -5.902086   -3.5268   5.567213 O.3        1 UNL1     -0.5058
     27 O         -0.237705   -0.302349   2.53022 O.3        1 UNL1     -0.3648
     28 O         0.220885   -1.931445   -0.65693 O.3        1 UNL1     -0.3841
     29 O         -2.450579   0.423754   -0.248074 O.3        1 UNL1     -0.3863
     30 O         -2.523314   -3.248143   -0.357578 O.3        1 UNL1     -0.3829
     31 H         0.578179   -1.938942   1.734052 H        1 UNL1     0.0937
     32 H         0.0   0.0   0.0 H        1 UNL1     0.0671
     33 H         -1.892017   -1.088709   -1.466353 H        1 UNL1     0.0649
     34 H         -3.884467   -1.748569   -0.025199 H        1 UNL1     0.0683
     35 H         -3.270229   -2.960059   2.016676 H        1 UNL1     0.1085
     36 H         -4.898018   -3.007748   3.28035 H        1 UNL1     0.0691
     37 H         -2.796915   0.553976   4.517153 H        1 UNL1     0.0691
     38 H         -3.433476   -1.336314   8.966222 H        1 UNL1     0.0385
     39 H         -4.995517   -0.928844   9.702793 H        1 UNL1     0.0385
     40 H         -3.719498   1.084406   8.873368 H        1 UNL1     0.0789
     41 H         -4.902682   2.740917   6.72387 H        1 UNL1     0.0623
     42 H         -7.019492   3.991999   6.597012 H        1 UNL1     0.0654
     43 H         -8.878283   1.134961   9.210749 H        1 UNL1     0.0654
     44 H         -6.813493   -0.14146   9.326286 H        1 UNL1     0.0623
     45 H         -9.040545   4.260657   8.242899 H        1 UNL1     0.2921
     46 H         -5.528965   -4.067889   6.280947 H        1 UNL1     0.2922
     47 H         0.506928   0.256427   2.267255 H        1 UNL1     0.2126
     48 H         1.172979   -1.778687   -0.502283 H        1 UNL1     0.2101
     49 H         -2.135579   0.980776   -0.97766 H        1 UNL1     0.2100
     50 H         -2.780706   -3.222532   -1.302462 H        1 UNL1     0.2102
@<TRIPOS>BOND
     1     1     2    1
     2     1     6    1
     3     2     3    1
     4     3     4    1
     5     3    29    1
     6     3    33    1
     7     4     5    1
     8     5     6    1
     9     5     7    1
    10     5    35    1
    11     7     8    1
    12     8     9   ar
    13     8    13   ar
    14     9    10   ar
    15     9    36    1
    16    10    11   ar
    17    10    26    1
    18    11    12   ar
    19    11    14    1
    20    12    13   ar
    21    12    17    1
    22    13    37    1
    23    14    15    1
    24    14    25    2
    25    15    16    1
    26    15    38    1
    27    15    39    1
    28    16    17    1
    29    16    18    1
    30    16    40    1
    31    18    19   ar
    32    18    23   ar
    33    19    20   ar
    34    19    41    1
    35    20    21   ar
    36    20    42    1
    37    21    22   ar
    38    21    24    1
    39    22    23   ar
    40    22    43    1
    41    23    44    1
    42    24    45    1
    43    26    46    1
    44    27    47    1
    45    28    48    1
    46    29    49    1
    47    30    50    1
    48     1    31    1
    49     1    27    1
    50     2    32    1
    51     2    28    1
    52     4    34    1
    53     4    30    1
