@<TRIPOS>MOLECULE
*****
 50 53 0 0 0
SMALL
GASTEIGER

@<TRIPOS>ATOM
     1 C         -0.35684   0.028519   2.154682 C.3        1 UNL1     0.1889
     2 C         -0.324919   0.717323   0.76383 C.3        1 UNL1     0.1342
     3 C         0.564644   1.967665   0.687739 C.3        1 UNL1     0.1174
     4 C         0.565689   2.775325   1.988047 C.3        1 UNL1     0.1456
     5 C         0.753434   1.889279   3.233052 C.3        1 UNL1     0.2326
     6 O         -0.264731   0.892192   3.278061 O.3        1 UNL1     -0.3076
     7 O         2.081283   1.348079   3.356502 O.3        1 UNL1     -0.4605
     8 C         2.197408   -0.019127   3.181032 C.ar        1 UNL1     0.1310
     9 C         1.12912   -0.917084   3.082371 C.ar        1 UNL1     0.0226
     10 C         1.349754   -2.285762   2.88758 C.ar        1 UNL1     0.1343
     11 C         2.644801   -2.78688   2.76278 C.ar        1 UNL1     0.1007
     12 C         3.720778   -1.905937   2.900607 C.ar        1 UNL1     0.1389
     13 C         3.49873   -0.530174   3.099108 C.ar        1 UNL1     0.0229
     14 C         2.932903   -4.210589   2.472603 C.2        1 UNL1     0.1740
     15 C         4.362923   -4.531033   2.150254 C.3        1 UNL1     0.0520
     16 C         5.258846   -3.723493   3.079317 C.3        1 UNL1     0.1322
     17 O         5.036613   -2.306985   2.902711 O.3        1 UNL1     -0.4828
     18 C         5.221241   -4.194869   4.535035 C.ar        1 UNL1     -0.0067
     19 C         6.38237   -4.746279   5.114638 C.ar        1 UNL1     -0.0516
     20 C         6.369071   -5.230427   6.428178 C.ar        1 UNL1     -0.0198
     21 C         5.201611   -5.175706   7.168359 C.ar        1 UNL1     0.1169
     22 C         4.051069   -4.607909   6.636664 C.ar        1 UNL1     -0.0198
     23 C         4.069074   -4.106876   5.329492 C.ar        1 UNL1     -0.0516
     24 O         5.216576   -5.691362   8.431005 O.3        1 UNL1     -0.5068
     25 O         2.065017   -5.077643   2.413644 O.2        1 UNL1     -0.2917
     26 O         0.264758   -3.108477   2.800922 O.3        1 UNL1     -0.5058
     27 O         0.536195   -1.068554   2.262879 O.3        1 UNL1     -0.3648
     28 O         -1.664039   1.123046   0.424933 O.3        1 UNL1     -0.3841
     29 O         1.880588   1.627614   0.246388 O.3        1 UNL1     -0.3863
     30 O         -0.687424   3.483318   2.106977 O.3        1 UNL1     -0.3829
     31 H         -1.350335   -0.421274   2.258285 H        1 UNL1     0.0937
     32 H         0.0   0.0   0.0 H        1 UNL1     0.0671
     33 H         0.155287   2.623428   -0.093364 H        1 UNL1     0.0649
     34 H         1.358964   3.530475   1.958617 H        1 UNL1     0.0683
     35 H         0.569682   2.570918   4.072981 H        1 UNL1     0.1085
     36 H         0.098066   -0.582473   3.115286 H        1 UNL1     0.0691
     37 H         4.353425   0.134591   3.204357 H        1 UNL1     0.0691
     38 H         4.534775   -4.261217   1.102784 H        1 UNL1     0.0385
     39 H         4.52172   -5.609622   2.256116 H        1 UNL1     0.0385
     40 H         6.294371   -3.882202   2.749139 H        1 UNL1     0.0789
     41 H         7.308874   -4.808957   4.551333 H        1 UNL1     0.0623
     42 H         7.267712   -5.664192   6.859809 H        1 UNL1     0.0654
     43 H         3.135499   -4.546314   7.212726 H        1 UNL1     0.0654
     44 H         3.155069   -3.660483   4.949791 H        1 UNL1     0.0623
     45 H         6.139343   -5.856325   8.684 H        1 UNL1     0.2921
     46 H         -0.269936   -2.858724   2.030768 H        1 UNL1     0.2922
     47 H         0.106872   -1.806072   2.718521 H        1 UNL1     0.2126
     48 H         -1.799016   2.003837   0.824585 H        1 UNL1     0.2101
     49 H         1.885144   1.508408   -0.716713 H        1 UNL1     0.2100
     50 H         -0.980817   3.422375   3.039672 H        1 UNL1     0.2102
@<TRIPOS>BOND
     1     1     2    1
     2     1     6    1
     3     2     3    1
     4     3     4    1
     5     3    29    1
     6     3    33    1
     7     4     5    1
     8     5     6    1
     9     5     7    1
    10     5    35    1
    11     7     8    1
    12     8     9   ar
    13     8    13   ar
    14     9    10   ar
    15     9    36    1
    16    10    11   ar
    17    10    26    1
    18    11    12   ar
    19    11    14    1
    20    12    13   ar
    21    12    17    1
    22    13    37    1
    23    14    15    1
    24    14    25    2
    25    15    16    1
    26    15    38    1
    27    15    39    1
    28    16    17    1
    29    16    18    1
    30    16    40    1
    31    18    19   ar
    32    18    23   ar
    33    19    20   ar
    34    19    41    1
    35    20    21   ar
    36    20    42    1
    37    21    22   ar
    38    21    24    1
    39    22    23   ar
    40    22    43    1
    41    23    44    1
    42    24    45    1
    43    26    46    1
    44    27    47    1
    45    28    48    1
    46    29    49    1
    47    30    50    1
    48     1    31    1
    49     1    27    1
    50     2    32    1
    51     2    28    1
    52     4    34    1
    53     4    30    1
