@<TRIPOS>MOLECULE
*****
 50 53 0 0 0
SMALL
GASTEIGER

@<TRIPOS>ATOM
     1 C         -0.005223   -0.981143   1.951444 C.3        1 UNL1     0.1889
     2 C         -0.581962   0.035024   0.929331 C.3        1 UNL1     0.1342
     3 C         -0.639067   1.486269   1.430423 C.3        1 UNL1     0.1174
     4 C         -0.944812   1.58581   2.926996 C.3        1 UNL1     0.1456
     5 C         -0.096459   0.615027   3.768567 C.3        1 UNL1     0.2326
     6 O         -0.296742   -0.722416   3.316901 O.3        1 UNL1     -0.3076
     7 O         1.29238   0.984867   3.843821 O.3        1 UNL1     -0.4605
     8 C         1.656611   1.75426   4.934187 C.ar        1 UNL1     0.1310
     9 C         2.623472   1.407403   5.884013 C.ar        1 UNL1     0.0226
     10 C         2.934566   2.264477   6.946344 C.ar        1 UNL1     0.1343
     11 C         2.302644   3.500966   7.07129 C.ar        1 UNL1     0.1007
     12 C         1.306165   3.840563   6.15233 C.ar        1 UNL1     0.1389
     13 C         0.99167   2.977452   5.085764 C.ar        1 UNL1     0.0229
     14 C         2.652139   4.481079   8.125513 C.2        1 UNL1     0.1740
     15 C         2.035695   5.841118   7.977728 C.3        1 UNL1     0.0520
     16 C         0.596062   5.669647   7.512956 C.3        1 UNL1     0.1322
     17 O         0.545588   4.983193   6.242797 O.3        1 UNL1     -0.4828
     18 C         -0.332418   5.09166   8.58374 C.ar        1 UNL1     -0.0067
     19 C         -1.601597   4.604107   8.209986 C.ar        1 UNL1     -0.0516
     20 C         -2.493692   4.112631   9.170496 C.ar        1 UNL1     -0.0198
     21 C         -2.132153   4.110152   10.505827 C.ar        1 UNL1     0.1169
     22 C         -0.876453   4.552645   10.901118 C.ar        1 UNL1     -0.0198
     23 C         0.022883   5.027038   9.938723 C.ar        1 UNL1     -0.0516
     24 O         -3.041532   3.659136   11.416879 O.3        1 UNL1     -0.5068
     25 O         3.453527   4.247944   9.026574 O.2        1 UNL1     -0.2917
     26 O         3.886341   1.866458   7.839255 O.3        1 UNL1     -0.5058
     27 O         1.371277   -1.262251   1.753925 O.3        1 UNL1     -0.3648
     28 O         -1.927909   -0.359166   0.604146 O.3        1 UNL1     -0.3841
     29 O         0.54299   2.197992   1.058506 O.3        1 UNL1     -0.3863
     30 O         -2.341543   1.290929   3.145805 O.3        1 UNL1     -0.3829
     31 H         -0.505806   -1.93643   1.759296 H        1 UNL1     0.0937
     32 H         0.0   0.0   0.0 H        1 UNL1     0.0671
     33 H         -1.461223   1.99075   0.903851 H        1 UNL1     0.0649
     34 H         -0.775003   2.610368   3.276059 H        1 UNL1     0.0683
     35 H         -0.535279   0.681899   4.771983 H        1 UNL1     0.1085
     36 H         3.18963   0.485321   5.810865 H        1 UNL1     0.0691
     37 H         0.211182   3.264582   4.384417 H        1 UNL1     0.0691
     38 H         2.626012   6.393808   7.239091 H        1 UNL1     0.0385
     39 H         2.101701   6.370967   8.934118 H        1 UNL1     0.0385
     40 H         0.20343   6.672857   7.298643 H        1 UNL1     0.0789
     41 H         -1.912636   4.603787   7.169358 H        1 UNL1     0.0623
     42 H         -3.474093   3.75045   8.871077 H        1 UNL1     0.0654
     43 H         -0.577367   4.541128   11.942427 H        1 UNL1     0.0654
     44 H         0.999332   5.355113   10.281883 H        1 UNL1     0.0623
     45 H         -3.525793   4.422707   11.770671 H        1 UNL1     0.2921
     46 H         3.574979   1.080271   8.315042 H        1 UNL1     0.2922
     47 H         1.532826   -1.514672   0.834118 H        1 UNL1     0.2126
     48 H         -1.858339   -1.156087   0.043958 H        1 UNL1     0.2101
     49 H         0.413858   2.624607   0.196463 H        1 UNL1     0.2100
     50 H         -2.868534   2.01282   2.744724 H        1 UNL1     0.2102
@<TRIPOS>BOND
     1     1     2    1
     2     1     6    1
     3     2     3    1
     4     3     4    1
     5     3    29    1
     6     3    33    1
     7     4     5    1
     8     5     6    1
     9     5     7    1
    10     5    35    1
    11     7     8    1
    12     8     9   ar
    13     8    13   ar
    14     9    10   ar
    15     9    36    1
    16    10    11   ar
    17    10    26    1
    18    11    12   ar
    19    11    14    1
    20    12    13   ar
    21    12    17    1
    22    13    37    1
    23    14    15    1
    24    14    25    2
    25    15    16    1
    26    15    38    1
    27    15    39    1
    28    16    17    1
    29    16    18    1
    30    16    40    1
    31    18    19   ar
    32    18    23   ar
    33    19    20   ar
    34    19    41    1
    35    20    21   ar
    36    20    42    1
    37    21    22   ar
    38    21    24    1
    39    22    23   ar
    40    22    43    1
    41    23    44    1
    42    24    45    1
    43    26    46    1
    44    27    47    1
    45    28    48    1
    46    29    49    1
    47    30    50    1
    48     1    31    1
    49     1    27    1
    50     2    32    1
    51     2    28    1
    52     4    34    1
    53     4    30    1
