@<TRIPOS>MOLECULE
*****
 50 53 0 0 0
SMALL
GASTEIGER

@<TRIPOS>ATOM
     1 C         1.825325   1.136767   -0.383087 C.3        1 UNL1     0.1889
     2 C         0.941811   -0.129041   -0.547634 C.3        1 UNL1     0.1342
     3 C         1.607573   -1.43862   -0.097938 C.3        1 UNL1     0.1174
     4 C         3.113015   -1.464298   -0.373804 C.3        1 UNL1     0.1456
     5 C         3.815493   -0.1661   0.063883 C.3        1 UNL1     0.2326
     6 O         3.218481   0.952972   -0.587364 O.3        1 UNL1     -0.3076
     7 O         3.897109   -0.012117   1.492501 O.3        1 UNL1     -0.4605
     8 C         3.656796   -1.151177   2.239709 C.ar        1 UNL1     0.1310
     9 C         3.96263   -1.310359   3.595595 C.ar        1 UNL1     0.0226
     10 C         3.663567   -2.500084   4.270146 C.ar        1 UNL1     0.1343
     11 C         3.029157   -3.551781   3.610374 C.ar        1 UNL1     0.1007
     12 C         2.755918   -3.420036   2.246275 C.ar        1 UNL1     0.1389
     13 C         3.05912   -2.224667   1.567606 C.ar        1 UNL1     0.0229
     14 C         2.614585   -4.798468   4.29452 C.2        1 UNL1     0.1740
     15 C         1.750022   -5.723989   3.489852 C.3        1 UNL1     0.0520
     16 C         2.273255   -5.751038   2.060358 C.3        1 UNL1     0.1322
     17 O         2.232529   -4.431194   1.474336 O.3        1 UNL1     -0.4828
     18 C         3.615335   -6.471197   1.908971 C.ar        1 UNL1     -0.0067
     19 C         4.218735   -6.55123   0.637076 C.ar        1 UNL1     -0.0516
     20 C         5.422104   -7.243167   0.455172 C.ar        1 UNL1     -0.0198
     21 C         6.026845   -7.864163   1.533356 C.ar        1 UNL1     0.1169
     22 C         5.474305   -7.77473   2.804395 C.ar        1 UNL1     -0.0198
     23 C         4.280543   -7.067242   2.99 C.ar        1 UNL1     -0.0516
     24 O         7.178187   -8.560783   1.310793 O.3        1 UNL1     -0.5068
     25 O         2.879177   -5.04575   5.468116 O.2        1 UNL1     -0.2917
     26 O         3.988825   -2.591803   5.592031 O.3        1 UNL1     -0.5058
     27 O         1.561612   1.859207   0.809105 O.3        1 UNL1     -0.3648
     28 O         0.608105   -0.274433   -1.940547 O.3        1 UNL1     -0.3841
     29 O         1.289694   -1.727027   1.265113 O.3        1 UNL1     -0.3863
     30 O         3.332231   -1.656418   -1.788274 O.3        1 UNL1     -0.3829
     31 H         1.537617   1.82547   -1.184954 H        1 UNL1     0.0937
     32 H         0.0   0.0   0.0 H        1 UNL1     0.0671
     33 H         1.163676   -2.257817   -0.680683 H        1 UNL1     0.0649
     34 H         3.572981   -2.315452   0.140366 H        1 UNL1     0.0683
     35 H         4.830864   -0.26572   -0.33982 H        1 UNL1     0.1085
     36 H         4.405031   -0.509723   4.178162 H        1 UNL1     0.0691
     37 H         2.837324   -2.147704   0.505355 H        1 UNL1     0.0691
     38 H         0.725898   -5.337705   3.528332 H        1 UNL1     0.0385
     39 H         1.758799   -6.716638   3.95283 H        1 UNL1     0.0385
     40 H         1.560001   -6.337625   1.465628 H        1 UNL1     0.0789
     41 H         3.759174   -6.080038   -0.226887 H        1 UNL1     0.0623
     42 H         5.87132   -7.307822   -0.532774 H        1 UNL1     0.0654
     43 H         5.947391   -8.244556   3.658423 H        1 UNL1     0.0654
     44 H         3.882615   -7.008838   3.998507 H        1 UNL1     0.0623
     45 H         7.921521   -8.045553   1.663935 H        1 UNL1     0.2921
     46 H         4.938148   -2.425424   5.703909 H        1 UNL1     0.2922
     47 H         1.129907   1.28701   1.458783 H        1 UNL1     0.2126
     48 H         1.442719   -0.467593   -2.409419 H        1 UNL1     0.2101
     49 H         0.814712   -2.571413   1.321666 H        1 UNL1     0.2100
     50 H         3.268832   -2.615894   -1.975621 H        1 UNL1     0.2102
@<TRIPOS>BOND
     1     1     2    1
     2     1     6    1
     3     2     3    1
     4     3     4    1
     5     3    29    1
     6     3    33    1
     7     4     5    1
     8     5     6    1
     9     5     7    1
    10     5    35    1
    11     7     8    1
    12     8     9   ar
    13     8    13   ar
    14     9    10   ar
    15     9    36    1
    16    10    11   ar
    17    10    26    1
    18    11    12   ar
    19    11    14    1
    20    12    13   ar
    21    12    17    1
    22    13    37    1
    23    14    15    1
    24    14    25    2
    25    15    16    1
    26    15    38    1
    27    15    39    1
    28    16    17    1
    29    16    18    1
    30    16    40    1
    31    18    19   ar
    32    18    23   ar
    33    19    20   ar
    34    19    41    1
    35    20    21   ar
    36    20    42    1
    37    21    22   ar
    38    21    24    1
    39    22    23   ar
    40    22    43    1
    41    23    44    1
    42    24    45    1
    43    26    46    1
    44    27    47    1
    45    28    48    1
    46    29    49    1
    47    30    50    1
    48     1    31    1
    49     1    27    1
    50     2    32    1
    51     2    28    1
    52     4    34    1
    53     4    30    1
