@<TRIPOS>MOLECULE
*****
 50 53 0 0 0
SMALL
GASTEIGER

@<TRIPOS>ATOM
     1 C         -1.19023   -1.746864   0.55011 C.3        1 UNL1     0.1889
     2 C         -0.348786   -0.929563   -0.466714 C.3        1 UNL1     0.1342
     3 C         -1.07755   -0.590164   -1.77598 C.3        1 UNL1     0.1174
     4 C         -2.035272   -1.6962   -2.226059 C.3        1 UNL1     0.1456
     5 C         -2.919504   -2.214828   -1.077354 C.3        1 UNL1     0.2326
     6 O         -2.101459   -2.68246   -0.007312 O.3        1 UNL1     -0.3076
     7 O         -3.920573   -1.27155   -0.653786 O.3        1 UNL1     -0.4605
     8 C         -3.971705   -0.083524   -1.360545 C.ar        1 UNL1     0.1310
     9 C         -2.887477   0.770491   -1.589472 C.ar        1 UNL1     0.0226
     10 C         -3.037081   1.946363   -2.334352 C.ar        1 UNL1     0.1343
     11 C         -4.270559   2.284994   -2.889059 C.ar        1 UNL1     0.1007
     12 C         -5.369821   1.461138   -2.6328 C.ar        1 UNL1     0.1389
     13 C         -5.219718   0.280224   -1.881574 C.ar        1 UNL1     0.0229
     14 C         -4.466042   3.471359   -3.754206 C.2        1 UNL1     0.1740
     15 C         -5.795798   3.5601   -4.443715 C.3        1 UNL1     0.0520
     16 C         -6.875678   3.115829   -3.466761 C.3        1 UNL1     0.1322
     17 O         -6.651089   1.754515   -3.038447 O.3        1 UNL1     -0.4828
     18 C         -7.120912   4.10726   -2.32674 C.ar        1 UNL1     -0.0067
     19 C         -8.340066   4.813693   -2.273549 C.ar        1 UNL1     -0.0516
     20 C         -8.577519   5.762217   -1.27161 C.ar        1 UNL1     -0.0198
     21 C         -7.60311   6.018136   -0.323527 C.ar        1 UNL1     0.1169
     22 C         -6.40568   5.314602   -0.329863 C.ar        1 UNL1     -0.0198
     23 C         -6.175313   4.352802   -1.320785 C.ar        1 UNL1     -0.0516
     24 O         -7.855036   6.975791   0.614466 O.3        1 UNL1     -0.5068
     25 O         -3.586687   4.300167   -3.973974 O.2        1 UNL1     -0.2917
     26 O         -1.940403   2.736499   -2.520281 O.3        1 UNL1     -0.5058
     27 O         -1.805466   -0.946799   1.547189 O.3        1 UNL1     -0.3648
     28 O         0.819271   -1.696641   -0.813038 O.3        1 UNL1     -0.3841
     29 O         -1.71066   0.687895   -1.687272 O.3        1 UNL1     -0.3863
     30 O         -1.269029   -2.799521   -2.756384 O.3        1 UNL1     -0.3829
     31 H         -0.485624   -2.375423   1.105558 H        1 UNL1     0.0937
     32 H         0.0   0.0   0.0 H        1 UNL1     0.0671
     33 H         -0.319268   -0.486032   -2.564576 H        1 UNL1     0.0649
     34 H         -2.674201   -1.330359   -3.037434 H        1 UNL1     0.0683
     35 H         -3.419298   -3.093396   -1.504208 H        1 UNL1     0.1085
     36 H         -1.890841   0.53498   -1.232582 H        1 UNL1     0.0691
     37 H         -6.091358   -0.343508   -1.695305 H        1 UNL1     0.0691
     38 H         -5.759775   2.902191   -5.318578 H        1 UNL1     0.0385
     39 H         -5.950872   4.586383   -4.793676 H        1 UNL1     0.0385
     40 H         -7.820696   3.075578   -4.025188 H        1 UNL1     0.0789
     41 H         -9.117266   4.637578   -3.011515 H        1 UNL1     0.0623
     42 H         -9.51695   6.308968   -1.248312 H        1 UNL1     0.0654
     43 H         -5.641806   5.496355   0.416712 H        1 UNL1     0.0654
     44 H         -5.232935   3.814497   -1.289199 H        1 UNL1     0.0623
     45 H         -8.127239   6.536104   1.436231 H        1 UNL1     0.2921
     46 H         -1.963179   3.116775   -3.412628 H        1 UNL1     0.2922
     47 H         -2.319246   -1.500926   2.151204 H        1 UNL1     0.2126
     48 H         0.851356   -2.45188   -0.19472 H        1 UNL1     0.2101
     49 H         -2.112925   0.796791   -0.810848 H        1 UNL1     0.2100
     50 H         -0.321361   -2.616847   -2.588256 H        1 UNL1     0.2102
@<TRIPOS>BOND
     1     1     2    1
     2     1     6    1
     3     2     3    1
     4     3     4    1
     5     3    29    1
     6     3    33    1
     7     4     5    1
     8     5     6    1
     9     5     7    1
    10     5    35    1
    11     7     8    1
    12     8     9   ar
    13     8    13   ar
    14     9    10   ar
    15     9    36    1
    16    10    11   ar
    17    10    26    1
    18    11    12   ar
    19    11    14    1
    20    12    13   ar
    21    12    17    1
    22    13    37    1
    23    14    15    1
    24    14    25    2
    25    15    16    1
    26    15    38    1
    27    15    39    1
    28    16    17    1
    29    16    18    1
    30    16    40    1
    31    18    19   ar
    32    18    23   ar
    33    19    20   ar
    34    19    41    1
    35    20    21   ar
    36    20    42    1
    37    21    22   ar
    38    21    24    1
    39    22    23   ar
    40    22    43    1
    41    23    44    1
    42    24    45    1
    43    26    46    1
    44    27    47    1
    45    28    48    1
    46    29    49    1
    47    30    50    1
    48     1    31    1
    49     1    27    1
    50     2    32    1
    51     2    28    1
    52     4    34    1
    53     4    30    1
