@<TRIPOS>MOLECULE
*****
 50 53 0 0 0
SMALL
GASTEIGER

@<TRIPOS>ATOM
     1 C         0.913668   -1.682776   -1.050847 C.3        1 UNL1     0.1889
     2 C         -0.312804   -0.810814   -0.669548 C.3        1 UNL1     0.1342
     3 C         -1.469684   -1.582178   -0.016024 C.3        1 UNL1     0.1174
     4 C         -1.629237   -2.998341   -0.57472 C.3        1 UNL1     0.1456
     5 C         -0.288547   -3.748974   -0.672007 C.3        1 UNL1     0.2326
     6 O         0.626679   -3.007177   -1.475105 O.3        1 UNL1     -0.3076
     7 O         0.254421   -4.120782   0.607941 O.3        1 UNL1     -0.4605
     8 C         -0.301456   -3.492563   1.707881 C.ar        1 UNL1     0.1310
     9 C         -1.397956   -2.624215   1.676896 C.ar        1 UNL1     0.0226
     10 C         -1.899378   -2.049448   2.85083 C.ar        1 UNL1     0.1343
     11 C         -1.330739   -2.348098   4.088286 C.ar        1 UNL1     0.1007
     12 C         -0.209761   -3.18156   4.127429 C.ar        1 UNL1     0.1389
     13 C         0.295866   -3.757272   2.946612 C.ar        1 UNL1     0.0229
     14 C         -1.872214   -1.835386   5.368163 C.2        1 UNL1     0.1740
     15 C         -1.278591   -2.432771   6.610054 C.3        1 UNL1     0.0520
     16 C         0.221189   -2.589276   6.400001 C.3        1 UNL1     0.1322
     17 O         0.49399   -3.45621   5.277025 O.3        1 UNL1     -0.4828
     18 C         0.981856   -1.261301   6.375674 C.ar        1 UNL1     -0.0067
     19 C         2.364367   -1.260079   6.09841 C.ar        1 UNL1     -0.0516
     20 C         3.099257   -0.0686   6.114985 C.ar        1 UNL1     -0.0198
     21 C         2.466135   1.124548   6.413954 C.ar        1 UNL1     0.1169
     22 C         1.099454   1.160058   6.658415 C.ar        1 UNL1     -0.0198
     23 C         0.360824   -0.028756   6.623765 C.ar        1 UNL1     -0.0516
     24 O         3.221541   2.259373   6.457937 O.3        1 UNL1     -0.5068
     25 O         -2.800831   -1.034498   5.436961 O.2        1 UNL1     -0.2917
     26 O         -2.970427   -1.21   2.752009 O.3        1 UNL1     -0.5058
     27 O         1.949485   -1.656128   -0.081745 O.3        1 UNL1     -0.3648
     28 O         -0.827863   -0.19961   -1.866983 O.3        1 UNL1     -0.3841
     29 O         -1.354111   -1.55884   1.408136 O.3        1 UNL1     -0.3863
     30 O         -2.216443   -2.924522   -1.892077 O.3        1 UNL1     -0.3829
     31 H         1.362014   -1.22136   -1.937504 H        1 UNL1     0.0937
     32 H         0.0   0.0   0.0 H        1 UNL1     0.0671
     33 H         -2.401149   -1.044569   -0.242008 H        1 UNL1     0.0649
     34 H         -2.320321   -3.572192   0.052574 H        1 UNL1     0.0683
     35 H         -0.53582   -4.660872   -1.22984 H        1 UNL1     0.1085
     36 H         -1.918868   -2.396248   0.753423 H        1 UNL1     0.0691
     37 H         1.170318   -4.401903   3.003861 H        1 UNL1     0.0691
     38 H         -1.758154   -3.403974   6.772257 H        1 UNL1     0.0385
     39 H         -1.511994   -1.789013   7.464968 H        1 UNL1     0.0385
     40 H         0.6147   -3.133686   7.269073 H        1 UNL1     0.0789
     41 H         2.886333   -2.184728   5.869879 H        1 UNL1     0.0623
     42 H         4.167102   -0.082324   5.911195 H        1 UNL1     0.0654
     43 H         0.590809   2.090986   6.878788 H        1 UNL1     0.0654
     44 H         -0.706923   0.037452   6.809181 H        1 UNL1     0.0623
     45 H         4.148526   2.017024   6.300825 H        1 UNL1     0.2921
     46 H         -3.217187   -0.894959   3.635905 H        1 UNL1     0.2922
     47 H         1.721687   -1.047842   0.635163 H        1 UNL1     0.2126
     48 H         -1.249401   -0.911802   -2.385462 H        1 UNL1     0.2101
     49 H         -0.945899   -2.382321   1.719644 H        1 UNL1     0.2100
     50 H         -1.848906   -2.135869   -2.342248 H        1 UNL1     0.2102
@<TRIPOS>BOND
     1     1     2    1
     2     1     6    1
     3     2     3    1
     4     3     4    1
     5     3    29    1
     6     3    33    1
     7     4     5    1
     8     5     6    1
     9     5     7    1
    10     5    35    1
    11     7     8    1
    12     8     9   ar
    13     8    13   ar
    14     9    10   ar
    15     9    36    1
    16    10    11   ar
    17    10    26    1
    18    11    12   ar
    19    11    14    1
    20    12    13   ar
    21    12    17    1
    22    13    37    1
    23    14    15    1
    24    14    25    2
    25    15    16    1
    26    15    38    1
    27    15    39    1
    28    16    17    1
    29    16    18    1
    30    16    40    1
    31    18    19   ar
    32    18    23   ar
    33    19    20   ar
    34    19    41    1
    35    20    21   ar
    36    20    42    1
    37    21    22   ar
    38    21    24    1
    39    22    23   ar
    40    22    43    1
    41    23    44    1
    42    24    45    1
    43    26    46    1
    44    27    47    1
    45    28    48    1
    46    29    49    1
    47    30    50    1
    48     1    31    1
    49     1    27    1
    50     2    32    1
    51     2    28    1
    52     4    34    1
    53     4    30    1
