@<TRIPOS>MOLECULE
*****
 50 53 0 0 0
SMALL
GASTEIGER

@<TRIPOS>ATOM
     1 C         -1.199497   0.371288   -1.78722 C.3        1 UNL1     0.1889
     2 C         -0.396027   0.861073   -0.552519 C.3        1 UNL1     0.1342
     3 C         -1.187437   1.755623   0.413874 C.3        1 UNL1     0.1174
     4 C         -2.194599   2.658328   -0.302972 C.3        1 UNL1     0.1456
     5 C         -3.026395   1.898068   -1.352011 C.3        1 UNL1     0.2326
     6 O         -2.16209   1.279323   -2.302275 O.3        1 UNL1     -0.3076
     7 O         -3.979838   0.986399   -0.776576 O.3        1 UNL1     -0.4605
     8 C         -3.93847   0.854917   0.599843 C.ar        1 UNL1     0.1310
     9 C         -3.052906   1.524014   1.451538 C.ar        1 UNL1     0.0226
     10 C         -3.101203   1.336352   2.838028 C.ar        1 UNL1     0.1343
     11 C         -4.052829   0.492369   3.408941 C.ar        1 UNL1     0.1007
     12 C         -4.91569   -0.21273   2.56568 C.ar        1 UNL1     0.1389
     13 C         -4.865191   -0.025885   1.171416 C.ar        1 UNL1     0.0229
     14 C         -4.203234   0.321762   4.872643 C.2        1 UNL1     0.1740
     15 C         -5.414777   -0.444556   5.315894 C.3        1 UNL1     0.0520
     16 C         -5.618307   -1.616112   4.36511 C.3        1 UNL1     0.1322
     17 O         -5.818076   -1.149973   3.01238 O.3        1 UNL1     -0.4828
     18 C         -4.563425   -2.715923   4.507815 C.ar        1 UNL1     -0.0067
     19 C         -4.260563   -3.223104   5.788149 C.ar        1 UNL1     -0.0516
     20 C         -3.267762   -4.195223   5.959301 C.ar        1 UNL1     -0.0198
     21 C         -2.567187   -4.66189   4.861465 C.ar        1 UNL1     0.1169
     22 C         -2.865675   -4.206175   3.583941 C.ar        1 UNL1     -0.0198
     23 C         -3.871123   -3.247538   3.410319 C.ar        1 UNL1     -0.0516
     24 O         -1.581425   -5.580892   5.071488 O.3        1 UNL1     -0.5068
     25 O         -3.445793   0.831598   5.694126 O.2        1 UNL1     -0.2917
     26 O         -2.208755   2.017892   3.613027 O.3        1 UNL1     -0.5058
     27 O         -1.739657   -0.931118   -1.629891 O.3        1 UNL1     -0.3648
     28 O         0.73256   1.625071   -1.016526 O.3        1 UNL1     -0.3841
     29 O         -1.784025   0.976446   1.45267 O.3        1 UNL1     -0.3863
     30 O         -1.485253   3.730346   -0.961223 O.3        1 UNL1     -0.3829
     31 H         -0.48059   0.267797   -2.607306 H        1 UNL1     0.0937
     32 H         0.0   0.0   0.0 H        1 UNL1     0.0671
     33 H         -0.471437   2.417813   0.920399 H        1 UNL1     0.0649
     34 H         -2.868303   3.120529   0.427025 H        1 UNL1     0.0683
     35 H         -3.569746   2.689658   -1.883079 H        1 UNL1     0.1085
     36 H         -2.327   2.235894   1.074168 H        1 UNL1     0.0691
     37 H         -5.547169   -0.587537   0.536637 H        1 UNL1     0.0691
     38 H         -6.26882   0.240501   5.287026 H        1 UNL1     0.0385
     39 H         -5.273499   -0.771624   6.351677 H        1 UNL1     0.0385
     40 H         -6.571296   -2.090672   4.635523 H        1 UNL1     0.0789
     41 H         -4.789907   -2.866392   6.666899 H        1 UNL1     0.0623
     42 H         -3.035243   -4.569745   6.953122 H        1 UNL1     0.0654
     43 H         -2.333565   -4.575865   2.715553 H        1 UNL1     0.0654
     44 H         -4.085208   -2.921715   2.396982 H        1 UNL1     0.0623
     45 H         -1.560754   -5.797666   6.01769 H        1 UNL1     0.2921
     46 H         -1.628603   2.5504   3.046219 H        1 UNL1     0.2922
     47 H         -1.044876   -1.596394   -1.732589 H        1 UNL1     0.2126
     48 H         0.601393   2.539055   -0.698466 H        1 UNL1     0.2101
     49 H         -2.004179   1.545681   2.207189 H        1 UNL1     0.2100
     50 H         -2.02901   4.541853   -0.88708 H        1 UNL1     0.2102
@<TRIPOS>BOND
     1     1     2    1
     2     1     6    1
     3     2     3    1
     4     3     4    1
     5     3    29    1
     6     3    33    1
     7     4     5    1
     8     5     6    1
     9     5     7    1
    10     5    35    1
    11     7     8    1
    12     8     9   ar
    13     8    13   ar
    14     9    10   ar
    15     9    36    1
    16    10    11   ar
    17    10    26    1
    18    11    12   ar
    19    11    14    1
    20    12    13   ar
    21    12    17    1
    22    13    37    1
    23    14    15    1
    24    14    25    2
    25    15    16    1
    26    15    38    1
    27    15    39    1
    28    16    17    1
    29    16    18    1
    30    16    40    1
    31    18    19   ar
    32    18    23   ar
    33    19    20   ar
    34    19    41    1
    35    20    21   ar
    36    20    42    1
    37    21    22   ar
    38    21    24    1
    39    22    23   ar
    40    22    43    1
    41    23    44    1
    42    24    45    1
    43    26    46    1
    44    27    47    1
    45    28    48    1
    46    29    49    1
    47    30    50    1
    48     1    31    1
    49     1    27    1
    50     2    32    1
    51     2    28    1
    52     4    34    1
    53     4    30    1
