@<TRIPOS>MOLECULE
*****
 50 53 0 0 0
SMALL
GASTEIGER

@<TRIPOS>ATOM
     1 C         -2.020118   -0.315078   0.76854 C.3        1 UNL1     0.1889
     2 C         -1.032315   0.201576   -0.311856 C.3        1 UNL1     0.1342
     3 C         -1.172064   1.694399   -0.647141 C.3        1 UNL1     0.1174
     4 C         -2.620267   2.185289   -0.577477 C.3        1 UNL1     0.1456
     5 C         -3.34409   1.70971   0.69542 C.3        1 UNL1     0.2326
     6 O         -3.306365   0.286539   0.773057 O.3        1 UNL1     -0.3076
     7 O         -2.877852   2.35439   1.894725 O.3        1 UNL1     -0.4605
     8 C         -1.508712   2.521275   2.000229 C.ar        1 UNL1     0.1310
     9 C         -0.859265   3.7256   2.291985 C.ar        1 UNL1     0.0226
     10 C         0.535482   3.789368   2.394538 C.ar        1 UNL1     0.1343
     11 C         1.313892   2.644281   2.231153 C.ar        1 UNL1     0.1007
     12 C         0.679665   1.444196   1.898987 C.ar        1 UNL1     0.1389
     13 C         -0.722568   1.380887   1.79332 C.ar        1 UNL1     0.0229
     14 C         2.784162   2.637548   2.411198 C.2        1 UNL1     0.1740
     15 C         3.431223   1.283735   2.418304 C.3        1 UNL1     0.0520
     16 C         2.768598   0.427414   1.347977 C.3        1 UNL1     0.1322
     17 O         1.355468   0.281354   1.610274 O.3        1 UNL1     -0.4828
     18 C         3.107401   0.856603   -0.081615 C.ar        1 UNL1     -0.0067
     19 C         3.413749   -0.125932   -1.045456 C.ar        1 UNL1     -0.0516
     20 C         3.774023   0.234633   -2.349357 C.ar        1 UNL1     -0.0198
     21 C         3.838618   1.571557   -2.699054 C.ar        1 UNL1     0.1169
     22 C         3.510182   2.561009   -1.781474 C.ar        1 UNL1     -0.0198
     23 C         3.131988   2.200069   -0.482725 C.ar        1 UNL1     -0.0516
     24 O         4.229968   1.885793   -3.967321 O.3        1 UNL1     -0.5068
     25 O         3.444001   3.651506   2.623299 O.2        1 UNL1     -0.2917
     26 O         1.107161   4.994806   2.680346 O.3        1 UNL1     -0.5058
     27 O         -1.459437   -0.362314   2.070919 O.3        1 UNL1     -0.3648
     28 O         -1.261142   -0.533904   -1.528167 O.3        1 UNL1     -0.3841
     29 O         -0.282878   2.478657   0.15062 O.3        1 UNL1     -0.3863
     30 O         -3.341277   1.699041   -1.730472 O.3        1 UNL1     -0.3829
     31 H         -2.228419   -1.362976   0.526468 H        1 UNL1     0.0937
     32 H         0.0   0.0   0.0 H        1 UNL1     0.0671
     33 H         -0.837359   1.837983   -1.683999 H        1 UNL1     0.0649
     34 H         -2.646677   3.279733   -0.621021 H        1 UNL1     0.0683
     35 H         -4.390647   1.992255   0.52581 H        1 UNL1     0.1085
     36 H         -1.411272   4.63891   2.485048 H        1 UNL1     0.0691
     37 H         -1.191971   0.434766   1.532533 H        1 UNL1     0.0691
     38 H         3.286374   0.852665   3.414659 H        1 UNL1     0.0385
     39 H         4.507175   1.399272   2.248722 H        1 UNL1     0.0385
     40 H         3.17322   -0.588659   1.449946 H        1 UNL1     0.0789
     41 H         3.379252   -1.181816   -0.793323 H        1 UNL1     0.0623
     42 H         4.019528   -0.531913   -3.08021 H        1 UNL1     0.0654
     43 H         3.542868   3.610413   -2.049041 H        1 UNL1     0.0654
     44 H         2.871837   2.998777   0.205194 H        1 UNL1     0.0623
     45 H         5.101966   2.31048   -3.922858 H        1 UNL1     0.2921
     46 H         1.087615   5.557593   1.890218 H        1 UNL1     0.2922
     47 H         -1.844528   0.329687   2.626526 H        1 UNL1     0.2126
     48 H         -2.025259   -1.118854   -1.361759 H        1 UNL1     0.2101
     49 H         0.476225   2.762407   -0.383273 H        1 UNL1     0.2100
     50 H         -4.206923   2.15676   -1.759838 H        1 UNL1     0.2102
@<TRIPOS>BOND
     1     1     2    1
     2     1     6    1
     3     2     3    1
     4     3     4    1
     5     3    29    1
     6     3    33    1
     7     4     5    1
     8     5     6    1
     9     5     7    1
    10     5    35    1
    11     7     8    1
    12     8     9   ar
    13     8    13   ar
    14     9    10   ar
    15     9    36    1
    16    10    11   ar
    17    10    26    1
    18    11    12   ar
    19    11    14    1
    20    12    13   ar
    21    12    17    1
    22    13    37    1
    23    14    15    1
    24    14    25    2
    25    15    16    1
    26    15    38    1
    27    15    39    1
    28    16    17    1
    29    16    18    1
    30    16    40    1
    31    18    19   ar
    32    18    23   ar
    33    19    20   ar
    34    19    41    1
    35    20    21   ar
    36    20    42    1
    37    21    22   ar
    38    21    24    1
    39    22    23   ar
    40    22    43    1
    41    23    44    1
    42    24    45    1
    43    26    46    1
    44    27    47    1
    45    28    48    1
    46    29    49    1
    47    30    50    1
    48     1    31    1
    49     1    27    1
    50     2    32    1
    51     2    28    1
    52     4    34    1
    53     4    30    1
