@<TRIPOS>MOLECULE
*****
 50 53 0 0 0
SMALL
GASTEIGER

@<TRIPOS>ATOM
     1 C         -0.877948   0.528941   1.92879 C.3        1 UNL1     0.1889
     2 C         -0.40098   0.892154   0.496828 C.3        1 UNL1     0.1342
     3 C         0.647219   2.013741   0.435278 C.3        1 UNL1     0.1174
     4 C         0.436675   3.082514   1.510691 C.3        1 UNL1     0.1456
     5 C         0.178671   2.476688   2.90237 C.3        1 UNL1     0.2326
     6 O         -0.948983   1.605645   2.851861 O.3        1 UNL1     -0.3076
     7 O         1.342561   1.862372   3.484863 O.3        1 UNL1     -0.4605
     8 C         1.154206   1.245744   4.708717 C.ar        1 UNL1     0.1310
     9 C         -0.066913   1.139488   5.383165 C.ar        1 UNL1     0.0226
     10 C         -0.158795   0.478793   6.613994 C.ar        1 UNL1     0.1343
     11 C         0.964869   -0.11295   7.189373 C.ar        1 UNL1     0.1007
     12 C         2.197648   0.022009   6.545302 C.ar        1 UNL1     0.1389
     13 C         2.290267   0.688669   5.309011 C.ar        1 UNL1     0.0229
     14 C         0.908702   -0.895025   8.446098 C.2        1 UNL1     0.1740
     15 C         2.159099   -1.644962   8.80057 C.3        1 UNL1     0.0520
     16 C         3.357529   -0.762656   8.47923 C.3        1 UNL1     0.1322
     17 O         3.385329   -0.427247   7.07431 O.3        1 UNL1     -0.4828
     18 C         3.511267   0.434546   9.420397 C.ar        1 UNL1     -0.0067
     19 C         2.959474   1.679197   9.053544 C.ar        1 UNL1     -0.0516
     20 C         3.122669   2.80559   9.868755 C.ar        1 UNL1     -0.0198
     21 C         3.840189   2.702301   11.047026 C.ar        1 UNL1     0.1169
     22 C         4.366988   1.48263   11.451656 C.ar        1 UNL1     -0.0198
     23 C         4.188184   0.351918   10.645693 C.ar        1 UNL1     -0.0516
     24 O         4.010606   3.829129   11.796438 O.3        1 UNL1     -0.5068
     25 O         -0.106013   -1.004862   9.129308 O.2        1 UNL1     -0.2917
     26 O         -1.379014   0.411179   7.220689 O.3        1 UNL1     -0.5058
     27 O         -0.205424   -0.591306   2.48155 O.3        1 UNL1     -0.3648
     28 O         -1.540848   1.328738   -0.266586 O.3        1 UNL1     -0.3841
     29 O         1.969845   1.472713   0.444153 O.3        1 UNL1     -0.3863
     30 O         -0.692776   3.905373   1.146092 O.3        1 UNL1     -0.3829
     31 H         -1.919079   0.200532   1.837838 H        1 UNL1     0.0937
     32 H         0.0   0.0   0.0 H        1 UNL1     0.0671
     33 H         0.544035   2.516199   -0.536632 H        1 UNL1     0.0649
     34 H         1.310763   3.741297   1.559425 H        1 UNL1     0.0683
     35 H         -0.111266   3.338518   3.516426 H        1 UNL1     0.1085
     36 H         -0.986899   1.529571   4.961761 H        1 UNL1     0.0691
     37 H         3.261885   0.781059   4.828473 H        1 UNL1     0.0691
     38 H         2.174212   -2.563943   8.204943 H        1 UNL1     0.0385
     39 H         2.122375   -1.924017   9.859134 H        1 UNL1     0.0385
     40 H         4.258537   -1.371547   8.634007 H        1 UNL1     0.0789
     41 H         2.399828   1.788408   8.129142 H        1 UNL1     0.0623
     42 H         2.702541   3.762515   9.569089 H        1 UNL1     0.0654
     43 H         4.917724   1.387199   12.379823 H        1 UNL1     0.0654
     44 H         4.604237   -0.587089   10.997843 H        1 UNL1     0.0623
     45 H         4.247961   4.559538   11.2024 H        1 UNL1     0.2921
     46 H         -1.985993   1.03872   6.797393 H        1 UNL1     0.2922
     47 H         -0.239805   -1.338615   1.868192 H        1 UNL1     0.2126
     48 H         -2.07452   0.532309   -0.45267 H        1 UNL1     0.2101
     49 H         2.55593   2.042401   0.967368 H        1 UNL1     0.2100
     50 H         -0.448667   4.415034   0.345861 H        1 UNL1     0.2102
@<TRIPOS>BOND
     1     1     2    1
     2     1     6    1
     3     2     3    1
     4     3     4    1
     5     3    29    1
     6     3    33    1
     7     4     5    1
     8     5     6    1
     9     5     7    1
    10     5    35    1
    11     7     8    1
    12     8     9   ar
    13     8    13   ar
    14     9    10   ar
    15     9    36    1
    16    10    11   ar
    17    10    26    1
    18    11    12   ar
    19    11    14    1
    20    12    13   ar
    21    12    17    1
    22    13    37    1
    23    14    15    1
    24    14    25    2
    25    15    16    1
    26    15    38    1
    27    15    39    1
    28    16    17    1
    29    16    18    1
    30    16    40    1
    31    18    19   ar
    32    18    23   ar
    33    19    20   ar
    34    19    41    1
    35    20    21   ar
    36    20    42    1
    37    21    22   ar
    38    21    24    1
    39    22    23   ar
    40    22    43    1
    41    23    44    1
    42    24    45    1
    43    26    46    1
    44    27    47    1
    45    28    48    1
    46    29    49    1
    47    30    50    1
    48     1    31    1
    49     1    27    1
    50     2    32    1
    51     2    28    1
    52     4    34    1
    53     4    30    1
