@<TRIPOS>MOLECULE
*****
 50 53 0 0 0
SMALL
GASTEIGER

@<TRIPOS>ATOM
     1 C         -0.374064   -1.395051   1.638509 C.3        1 UNL1     0.1889
     2 C         -0.488563   -0.970818   0.149598 C.3        1 UNL1     0.1342
     3 C         -1.926184   -0.896324   -0.38721 C.3        1 UNL1     0.1174
     4 C         -2.842706   -1.960857   0.220962 C.3        1 UNL1     0.1456
     5 C         -2.698655   -2.059674   1.750618 C.3        1 UNL1     0.2326
     6 O         -1.341477   -2.329107   2.09463 O.3        1 UNL1     -0.3076
     7 O         -3.246432   -0.928729   2.452205 O.3        1 UNL1     -0.4605
     8 C         -3.777712   -1.190156   3.702375 C.ar        1 UNL1     0.1310
     9 C         -4.627808   -2.256481   4.014768 C.ar        1 UNL1     0.0226
     10 C         -5.100919   -2.446906   5.318534 C.ar        1 UNL1     0.1343
     11 C         -4.71591   -1.588506   6.347494 C.ar        1 UNL1     0.1007
     12 C         -3.900352   -0.496314   6.039656 C.ar        1 UNL1     0.1389
     13 C         -3.426905   -0.303538   4.728124 C.ar        1 UNL1     0.0229
     14 C         -5.11824   -1.791502   7.758549 C.2        1 UNL1     0.1740
     15 C         -4.435509   -0.908903   8.761767 C.3        1 UNL1     0.0520
     16 C         -4.32039   0.490395   8.172981 C.3        1 UNL1     0.1322
     17 O         -3.548331   0.47108   6.95207 O.3        1 UNL1     -0.4828
     18 C         -5.658456   1.225801   8.065821 C.ar        1 UNL1     -0.0067
     19 C         -5.906026   2.337799   8.896714 C.ar        1 UNL1     -0.0516
     20 C         -7.136857   3.003754   8.857715 C.ar        1 UNL1     -0.0198
     21 C         -8.128643   2.563927   7.999379 C.ar        1 UNL1     0.1169
     22 C         -7.902944   1.492503   7.145009 C.ar        1 UNL1     -0.0198
     23 C         -6.665683   0.837837   7.170628 C.ar        1 UNL1     -0.0516
     24 O         -9.327682   3.21387   8.01619 O.3        1 UNL1     -0.5068
     25 O         -5.896043   -2.670602   8.120061 O.2        1 UNL1     -0.2917
     26 O         -5.927918   -3.505624   5.556811 O.3        1 UNL1     -0.5058
     27 O         -0.242904   -0.2993   2.530089 O.3        1 UNL1     -0.3648
     28 O         0.219636   -1.932439   -0.65442 O.3        1 UNL1     -0.3841
     29 O         -2.449553   0.426648   -0.253192 O.3        1 UNL1     -0.3863
     30 O         -2.526827   -3.245268   -0.358864 O.3        1 UNL1     -0.3829
     31 H         0.572375   -1.937807   1.737244 H        1 UNL1     0.0937
     32 H         0.0   0.0   0.0 H        1 UNL1     0.0671
     33 H         -1.890633   -1.087854   -1.46877 H        1 UNL1     0.0649
     34 H         -3.88667   -1.74358   -0.030696 H        1 UNL1     0.0683
     35 H         -3.27788   -2.953648   2.013653 H        1 UNL1     0.1085
     36 H         -4.918629   -2.990557   3.271346 H        1 UNL1     0.0691
     37 H         -2.794137   0.555147   4.514212 H        1 UNL1     0.0691
     38 H         -3.446907   -1.336376   8.960408 H        1 UNL1     0.0385
     39 H         -5.00667   -0.919165   9.696351 H        1 UNL1     0.0385
     40 H         -3.7163   1.08636   8.87042 H        1 UNL1     0.0789
     41 H         -5.147054   2.696887   9.585675 H        1 UNL1     0.0623
     42 H         -7.319846   3.852616   9.511902 H        1 UNL1     0.0654
     43 H         -8.667366   1.149199   6.458197 H        1 UNL1     0.0654
     44 H         -6.520201   0.011187   6.481913 H        1 UNL1     0.0623
     45 H         -9.352749   3.83063   7.266727 H        1 UNL1     0.2921
     46 H         -5.716423   -3.893316   6.420742 H        1 UNL1     0.2922
     47 H         0.64425   -0.285683   2.915617 H        1 UNL1     0.2126
     48 H         0.895887   -2.336019   -0.07689 H        1 UNL1     0.2101
     49 H         -2.999318   0.484831   0.544409 H        1 UNL1     0.2100
     50 H         -2.006524   -3.752824   0.297934 H        1 UNL1     0.2102
@<TRIPOS>BOND
     1     1     2    1
     2     1     6    1
     3     2     3    1
     4     3     4    1
     5     3    29    1
     6     3    33    1
     7     4     5    1
     8     5     6    1
     9     5     7    1
    10     5    35    1
    11     7     8    1
    12     8     9   ar
    13     8    13   ar
    14     9    10   ar
    15     9    36    1
    16    10    11   ar
    17    10    26    1
    18    11    12   ar
    19    11    14    1
    20    12    13   ar
    21    12    17    1
    22    13    37    1
    23    14    15    1
    24    14    25    2
    25    15    16    1
    26    15    38    1
    27    15    39    1
    28    16    17    1
    29    16    18    1
    30    16    40    1
    31    18    19   ar
    32    18    23   ar
    33    19    20   ar
    34    19    41    1
    35    20    21   ar
    36    20    42    1
    37    21    22   ar
    38    21    24    1
    39    22    23   ar
    40    22    43    1
    41    23    44    1
    42    24    45    1
    43    26    46    1
    44    27    47    1
    45    28    48    1
    46    29    49    1
    47    30    50    1
    48     1    31    1
    49     1    27    1
    50     2    32    1
    51     2    28    1
    52     4    34    1
    53     4    30    1
