@<TRIPOS>MOLECULE
*****
 50 53 0 0 0
SMALL
GASTEIGER

@<TRIPOS>ATOM
     1 C         -0.221428   -1.563589   1.508961 C.3        1 UNL1     0.1889
     2 C         -0.811777   -0.511748   0.53169 C.3        1 UNL1     0.1342
     3 C         -1.718953   0.538267   1.19121 C.3        1 UNL1     0.1174
     4 C         -2.5357   -0.029696   2.354594 C.3        1 UNL1     0.1456
     5 C         -1.684026   -0.882086   3.31295 C.3        1 UNL1     0.2326
     6 O         -1.056163   -1.941145   2.593887 O.3        1 UNL1     -0.3076
     7 O         -0.761377   -0.1088   4.101663 O.3        1 UNL1     -0.4605
     8 C         0.39544   -0.75906   4.49213 C.ar        1 UNL1     0.1310
     9 C         0.736793   -2.074693   4.160637 C.ar        1 UNL1     0.0226
     10 C         1.942982   -2.639891   4.591406 C.ar        1 UNL1     0.1343
     11 C         2.848814   -1.894531   5.344897 C.ar        1 UNL1     0.1007
     12 C         2.500697   -0.59326   5.716772 C.ar        1 UNL1     0.1389
     13 C         1.286639   -0.026071   5.285736 C.ar        1 UNL1     0.0229
     14 C         4.17397   -2.413704   5.755477 C.2        1 UNL1     0.1740
     15 C         5.105516   -1.407087   6.364159 C.3        1 UNL1     0.0520
     16 C         4.300018   -0.499404   7.28353 C.3        1 UNL1     0.1322
     17 O         3.267803   0.19172   6.546001 O.3        1 UNL1     -0.4828
     18 C         3.813424   -1.190303   8.5597 C.ar        1 UNL1     -0.0067
     19 C         4.750808   -1.569607   9.542376 C.ar        1 UNL1     -0.0516
     20 C         4.345001   -2.245453   10.699318 C.ar        1 UNL1     -0.0198
     21 C         3.008707   -2.553617   10.881472 C.ar        1 UNL1     0.1169
     22 C         2.057581   -2.163782   9.947541 C.ar        1 UNL1     -0.0198
     23 C         2.460709   -1.47165   8.799283 C.ar        1 UNL1     -0.0516
     24 O         2.65598   -3.245967   12.00247 O.3        1 UNL1     -0.5068
     25 O         4.541518   -3.567399   5.549611 O.2        1 UNL1     -0.2917
     26 O         2.215659   -3.928336   4.234837 O.3        1 UNL1     -0.5058
     27 O         1.094176   -1.256861   1.942424 O.3        1 UNL1     -0.3648
     28 O         -1.600984   -1.199687   -0.456539 O.3        1 UNL1     -0.3841
     29 O         -0.969186   1.698837   1.555981 O.3        1 UNL1     -0.3863
     30 O         -3.602799   -0.848648   1.828946 O.3        1 UNL1     -0.3829
     31 H         -0.107787   -2.491741   0.938261 H        1 UNL1     0.0937
     32 H         0.0   0.0   0.0 H        1 UNL1     0.0671
     33 H         -2.438915   0.881717   0.435289 H        1 UNL1     0.0649
     34 H         -3.004493   0.786162   2.91585 H        1 UNL1     0.0683
     35 H         -2.420894   -1.343834   3.982049 H        1 UNL1     0.1085
     36 H         0.101026   -2.687334   3.530882 H        1 UNL1     0.0691
     37 H         1.038525   0.988569   5.589771 H        1 UNL1     0.0691
     38 H         5.558944   -0.838032   5.545558 H        1 UNL1     0.0385
     39 H         5.903951   -1.933712   6.897963 H        1 UNL1     0.0385
     40 H         4.974815   0.297691   7.623837 H        1 UNL1     0.0789
     41 H         5.80672   -1.347403   9.418578 H        1 UNL1     0.0623
     42 H         5.078953   -2.543119   11.444115 H        1 UNL1     0.0654
     43 H         1.006566   -2.386736   10.08743 H        1 UNL1     0.0654
     44 H         1.689486   -1.173158   8.095747 H        1 UNL1     0.0623
     45 H         3.248322   -4.010293   12.089955 H        1 UNL1     0.2921
     46 H         1.407599   -4.349813   3.901958 H        1 UNL1     0.2922
     47 H         1.665235   -1.082079   1.18137 H        1 UNL1     0.2126
     48 H         -0.972437   -1.658679   -1.046444 H        1 UNL1     0.2101
     49 H         -1.256606   2.017266   2.42649 H        1 UNL1     0.2100
     50 H         -4.230512   -0.261071   1.359432 H        1 UNL1     0.2102
@<TRIPOS>BOND
     1     1     2    1
     2     1     6    1
     3     2     3    1
     4     3     4    1
     5     3    29    1
     6     3    33    1
     7     4     5    1
     8     5     6    1
     9     5     7    1
    10     5    35    1
    11     7     8    1
    12     8     9   ar
    13     8    13   ar
    14     9    10   ar
    15     9    36    1
    16    10    11   ar
    17    10    26    1
    18    11    12   ar
    19    11    14    1
    20    12    13   ar
    21    12    17    1
    22    13    37    1
    23    14    15    1
    24    14    25    2
    25    15    16    1
    26    15    38    1
    27    15    39    1
    28    16    17    1
    29    16    18    1
    30    16    40    1
    31    18    19   ar
    32    18    23   ar
    33    19    20   ar
    34    19    41    1
    35    20    21   ar
    36    20    42    1
    37    21    22   ar
    38    21    24    1
    39    22    23   ar
    40    22    43    1
    41    23    44    1
    42    24    45    1
    43    26    46    1
    44    27    47    1
    45    28    48    1
    46    29    49    1
    47    30    50    1
    48     1    31    1
    49     1    27    1
    50     2    32    1
    51     2    28    1
    52     4    34    1
    53     4    30    1
