@<TRIPOS>MOLECULE
*****
 50 53 0 0 0
SMALL
GASTEIGER

@<TRIPOS>ATOM
     1 C         -0.373523   -1.395506   1.638245 C.3        1 UNL1     0.1889
     2 C         -0.488441   -0.970899   0.149473 C.3        1 UNL1     0.1342
     3 C         -1.926206   -0.896391   -0.386947 C.3        1 UNL1     0.1174
     4 C         -2.84248   -1.96116   0.221185 C.3        1 UNL1     0.1456
     5 C         -2.698028   -2.060359   1.750778 C.3        1 UNL1     0.2326
     6 O         -1.340739   -2.329763   2.094372 O.3        1 UNL1     -0.3076
     7 O         -3.245723   -0.929642   2.452797 O.3        1 UNL1     -0.4605
     8 C         -3.77666   -1.191438   3.703036 C.ar        1 UNL1     0.1310
     9 C         -4.626583   -2.257917   4.015372 C.ar        1 UNL1     0.0226
     10 C         -5.099344   -2.448719   5.31921 C.ar        1 UNL1     0.1343
     11 C         -4.714145   -1.590551   6.348292 C.ar        1 UNL1     0.1007
     12 C         -3.89876   -0.498209   6.040528 C.ar        1 UNL1     0.1389
     13 C         -3.425667   -0.305054   4.728924 C.ar        1 UNL1     0.0229
     14 C         -5.116096   -1.793946   7.759398 C.2        1 UNL1     0.1740
     15 C         -4.433184   -0.911547   8.762669 C.3        1 UNL1     0.0520
     16 C         -4.318337   0.487913   8.174214 C.3        1 UNL1     0.1322
     17 O         -3.54659   0.468979   6.953101 O.3        1 UNL1     -0.4828
     18 C         -5.656494   1.22323   8.067588 C.ar        1 UNL1     -0.0067
     19 C         -5.903947   2.334993   8.89883 C.ar        1 UNL1     -0.0516
     20 C         -7.134845   3.000852   8.860319 C.ar        1 UNL1     -0.0198
     21 C         -8.126814   2.561161   8.002124 C.ar        1 UNL1     0.1169
     22 C         -7.901241   1.489976   7.14742 C.ar        1 UNL1     -0.0198
     23 C         -6.663917   0.835411   7.172552 C.ar        1 UNL1     -0.0516
     24 O         -9.325904   3.210995   8.01941 O.3        1 UNL1     -0.5068
     25 O         -5.89373   -2.673207   8.120883 O.2        1 UNL1     -0.2917
     26 O         -5.92619   -3.507569   5.557426 O.3        1 UNL1     -0.5058
     27 O         -0.242229   -0.299974   2.530074 O.3        1 UNL1     -0.3648
     28 O         0.219635   -1.932251   -0.654975 O.3        1 UNL1     -0.3841
     29 O         -2.449655   0.426502   -0.252454 O.3        1 UNL1     -0.3863
     30 O         -2.526639   -3.245394   -0.359054 O.3        1 UNL1     -0.3829
     31 H         0.572988   -1.938206   1.736597 H        1 UNL1     0.0937
     32 H         0.0   0.0   0.0 H        1 UNL1     0.0671
     33 H         -1.890916   -1.087638   -1.468566 H        1 UNL1     0.0649
     34 H         -3.886527   -1.743907   -0.030149 H        1 UNL1     0.0683
     35 H         -3.277109   -2.954451   2.013731 H        1 UNL1     0.1085
     36 H         -4.917532   -2.991826   3.271834 H        1 UNL1     0.0691
     37 H         -2.793028   0.55374   4.515071 H        1 UNL1     0.0691
     38 H         -3.444494   -1.338986   8.960946 H        1 UNL1     0.0385
     39 H         -5.004105   -0.922099   9.697397 H        1 UNL1     0.0385
     40 H         -3.714119   1.083749   8.871652 H        1 UNL1     0.0789
     41 H         -5.144829   2.693968   9.58769 H        1 UNL1     0.0623
     42 H         -7.31774   3.849529   9.514772 H        1 UNL1     0.0654
     43 H         -8.665809   1.146784   6.460715 H        1 UNL1     0.0654
     44 H         -6.51854   0.008951   6.483587 H        1 UNL1     0.0623
     45 H         -9.39977   3.696136   8.857204 H        1 UNL1     0.2921
     46 H         -5.714441   -3.895466   6.421202 H        1 UNL1     0.2922
     47 H         -1.114874   0.015716   2.80337 H        1 UNL1     0.2126
     48 H         -0.335778   -2.103467   -1.439789 H        1 UNL1     0.2101
     49 H         -2.999221   0.484432   0.545303 H        1 UNL1     0.2100
     50 H         -1.578415   -3.426541   -0.192415 H        1 UNL1     0.2102
@<TRIPOS>BOND
     1     1     2    1
     2     1     6    1
     3     2     3    1
     4     3     4    1
     5     3    29    1
     6     3    33    1
     7     4     5    1
     8     5     6    1
     9     5     7    1
    10     5    35    1
    11     7     8    1
    12     8     9   ar
    13     8    13   ar
    14     9    10   ar
    15     9    36    1
    16    10    11   ar
    17    10    26    1
    18    11    12   ar
    19    11    14    1
    20    12    13   ar
    21    12    17    1
    22    13    37    1
    23    14    15    1
    24    14    25    2
    25    15    16    1
    26    15    38    1
    27    15    39    1
    28    16    17    1
    29    16    18    1
    30    16    40    1
    31    18    19   ar
    32    18    23   ar
    33    19    20   ar
    34    19    41    1
    35    20    21   ar
    36    20    42    1
    37    21    22   ar
    38    21    24    1
    39    22    23   ar
    40    22    43    1
    41    23    44    1
    42    24    45    1
    43    26    46    1
    44    27    47    1
    45    28    48    1
    46    29    49    1
    47    30    50    1
    48     1    31    1
    49     1    27    1
    50     2    32    1
    51     2    28    1
    52     4    34    1
    53     4    30    1
