@<TRIPOS>MOLECULE
*****
 50 53 0 0 0
SMALL
GASTEIGER

@<TRIPOS>ATOM
     1 C         -0.330571   -1.32765   1.702608 C.3        1 UNL1     0.1889
     2 C         -0.461271   -0.975845   0.196258 C.3        1 UNL1     0.1342
     3 C         -1.902046   -0.965434   -0.337149 C.3        1 UNL1     0.1174
     4 C         -2.787124   -2.025374   0.323368 C.3        1 UNL1     0.1456
     5 C         -2.635689   -2.049543   1.85531 C.3        1 UNL1     0.2326
     6 O         -1.270571   -2.265702   2.205451 O.3        1 UNL1     -0.3076
     7 O         -3.212128   -0.902793   2.506465 O.3        1 UNL1     -0.4605
     8 C         -3.72156   -1.118027   3.774409 C.ar        1 UNL1     0.1310
     9 C         -4.536456   -2.191844   4.148789 C.ar        1 UNL1     0.0226
     10 C         -4.989237   -2.331897   5.466089 C.ar        1 UNL1     0.1343
     11 C         -4.618169   -1.413538   6.447295 C.ar        1 UNL1     0.1007
     12 C         -3.838501   -0.314666   6.076643 C.ar        1 UNL1     0.1389
     13 C         -3.385541   -0.172636   4.751469 C.ar        1 UNL1     0.0229
     14 C         -4.99864   -1.558865   7.87147 C.2        1 UNL1     0.1740
     15 C         -4.330993   -0.609034   8.822059 C.3        1 UNL1     0.0520
     16 C         -4.263561   0.762568   8.164701 C.3        1 UNL1     0.1322
     17 O         -3.504901   0.705868   6.936577 O.3        1 UNL1     -0.4828
     18 C         -5.623749   1.453046   8.038793 C.ar        1 UNL1     -0.0067
     19 C         -6.003605   2.014463   6.802373 C.ar        1 UNL1     -0.0516
     20 C         -7.219802   2.694237   6.665496 C.ar        1 UNL1     -0.0198
     21 C         -8.059679   2.825495   7.756919 C.ar        1 UNL1     0.1169
     22 C         -7.728595   2.254615   8.978933 C.ar        1 UNL1     -0.0198
     23 C         -6.52092   1.558875   9.111304 C.ar        1 UNL1     -0.0516
     24 O         -9.218333   3.526804   7.595404 O.3        1 UNL1     -0.5068
     25 O         -5.746229   -2.441278   8.284921 O.2        1 UNL1     -0.2917
     26 O         -5.782096   -3.401075   5.765787 O.3        1 UNL1     -0.5058
     27 O         -0.226778   -0.18876   2.542218 O.3        1 UNL1     -0.3648
     28 O         0.270565   -1.953865   -0.565713 O.3        1 UNL1     -0.3841
     29 O         -2.46111   0.347546   -0.261902 O.3        1 UNL1     -0.3863
     30 O         -2.437907   -3.326076   -0.198083 O.3        1 UNL1     -0.3829
     31 H         0.630708   -1.839258   1.822104 H        1 UNL1     0.0937
     32 H         0.0   0.0   0.0 H        1 UNL1     0.0671
     33 H         -1.864595   -1.205621   -1.40889 H        1 UNL1     0.0649
     34 H         -3.83743   -1.848491   0.06652 H        1 UNL1     0.0683
     35 H         -3.189346   -2.945894   2.16174 H        1 UNL1     0.1085
     36 H         -4.813856   -2.969421   3.445551 H        1 UNL1     0.0691
     37 H         -2.780673   0.692431   4.488242 H        1 UNL1     0.0691
     38 H         -3.328118   -0.997665   9.028782 H        1 UNL1     0.0385
     39 H         -4.891172   -0.590069   9.763131 H        1 UNL1     0.0385
     40 H         -3.669504   1.409025   8.824783 H        1 UNL1     0.0789
     41 H         -5.35773   1.93298   5.932973 H        1 UNL1     0.0623
     42 H         -7.496012   3.133051   5.709901 H        1 UNL1     0.0654
     43 H         -8.385876   2.338451   9.836175 H        1 UNL1     0.0654
     44 H         -6.299137   1.116515   10.077728 H        1 UNL1     0.0623
     45 H         -9.964154   2.934749   7.784976 H        1 UNL1     0.2921
     46 H         -5.376917   -3.91324   6.483373 H        1 UNL1     0.2922
     47 H         0.515661   0.365626   2.26419 H        1 UNL1     0.2126
     48 H         1.203246   -1.887198   -0.283942 H        1 UNL1     0.2101
     49 H         -2.022818   0.930064   -0.9025 H        1 UNL1     0.2100
     50 H         -2.671016   -3.342023   -1.14946 H        1 UNL1     0.2102
@<TRIPOS>BOND
     1     1     2    1
     2     1     6    1
     3     2     3    1
     4     3     4    1
     5     3    29    1
     6     3    33    1
     7     4     5    1
     8     5     6    1
     9     5     7    1
    10     5    35    1
    11     7     8    1
    12     8     9   ar
    13     8    13   ar
    14     9    10   ar
    15     9    36    1
    16    10    11   ar
    17    10    26    1
    18    11    12   ar
    19    11    14    1
    20    12    13   ar
    21    12    17    1
    22    13    37    1
    23    14    15    1
    24    14    25    2
    25    15    16    1
    26    15    38    1
    27    15    39    1
    28    16    17    1
    29    16    18    1
    30    16    40    1
    31    18    19   ar
    32    18    23   ar
    33    19    20   ar
    34    19    41    1
    35    20    21   ar
    36    20    42    1
    37    21    22   ar
    38    21    24    1
    39    22    23   ar
    40    22    43    1
    41    23    44    1
    42    24    45    1
    43    26    46    1
    44    27    47    1
    45    28    48    1
    46    29    49    1
    47    30    50    1
    48     1    31    1
    49     1    27    1
    50     2    32    1
    51     2    28    1
    52     4    34    1
    53     4    30    1
