@<TRIPOS>MOLECULE
*****
 50 53 0 0 0
SMALL
GASTEIGER

@<TRIPOS>ATOM
     1 C         1.532022   0.884176   -1.281384 C.3        1 UNL1     0.1889
     2 C         1.021434   0.388074   0.098153 C.3        1 UNL1     0.1342
     3 C         1.050471   1.446724   1.211203 C.3        1 UNL1     0.1174
     4 C         2.23733   2.405473   1.087575 C.3        1 UNL1     0.1456
     5 C         2.424662   2.930865   -0.347428 C.3        1 UNL1     0.2326
     6 O         2.58399   1.837421   -1.248462 O.3        1 UNL1     -0.3076
     7 O         1.401974   3.857051   -0.756829 O.3        1 UNL1     -0.4605
     8 C         0.303703   3.955548   0.078412 C.ar        1 UNL1     0.1310
     9 C         -1.032942   3.927125   -0.333744 C.ar        1 UNL1     0.0226
     10 C         -2.0782   4.017002   0.593219 C.ar        1 UNL1     0.1343
     11 C         -1.812023   4.113626   1.958376 C.ar        1 UNL1     0.1007
     12 C         -0.481166   4.184281   2.37863 C.ar        1 UNL1     0.1389
     13 C         0.569651   4.096552   1.446151 C.ar        1 UNL1     0.0229
     14 C         -2.877266   4.127151   2.987564 C.2        1 UNL1     0.1740
     15 C         -2.408988   4.0094   4.408268 C.3        1 UNL1     0.0520
     16 C         -1.150182   4.849994   4.57188 C.3        1 UNL1     0.1322
     17 O         -0.106367   4.387959   3.686417 O.3        1 UNL1     -0.4828
     18 C         -1.405269   6.358262   4.519143 C.ar        1 UNL1     -0.0067
     19 C         -2.225541   6.956537   5.497629 C.ar        1 UNL1     -0.0516
     20 C         -2.517579   8.324939   5.451253 C.ar        1 UNL1     -0.0198
     21 C         -2.002609   9.10271   4.429634 C.ar        1 UNL1     0.1169
     22 C         -1.164552   8.548975   3.470532 C.ar        1 UNL1     -0.0198
     23 C         -0.85739   7.184241   3.527184 C.ar        1 UNL1     -0.0516
     24 O         -2.339454   10.423991   4.395659 O.3        1 UNL1     -0.5068
     25 O         -4.075718   4.150816   2.719914 O.2        1 UNL1     -0.2917
     26 O         -3.35971   3.984465   0.126039 O.3        1 UNL1     -0.5058
     27 O         0.491351   1.28276   -2.159406 O.3        1 UNL1     -0.3648
     28 O         1.853538   -0.70616   0.525893 O.3        1 UNL1     -0.3841
     29 O         -0.203541   2.126573   1.297191 O.3        1 UNL1     -0.3863
     30 O         3.443078   1.721407   1.492441 O.3        1 UNL1     -0.3829
     31 H         1.985996   0.018855   -1.776566 H        1 UNL1     0.0937
     32 H         -0.0   0.0   0.0 H        1 UNL1     0.0671
     33 H         1.164283   0.922084   2.170118 H        1 UNL1     0.0649
     34 H         2.105691   3.253377   1.768847 H        1 UNL1     0.0683
     35 H         3.386217   3.458198   -0.312631 H        1 UNL1     0.1085
     36 H         -1.305851   3.79745   -1.375293 H        1 UNL1     0.0691
     37 H         1.597112   4.155169   1.798827 H        1 UNL1     0.0691
     38 H         -2.205294   2.951082   4.603199 H        1 UNL1     0.0385
     39 H         -3.212534   4.332256   5.078981 H        1 UNL1     0.0385
     40 H         -0.760402   4.656287   5.580378 H        1 UNL1     0.0789
     41 H         -2.649401   6.365876   6.304545 H        1 UNL1     0.0623
     42 H         -3.161047   8.772213   6.204849 H        1 UNL1     0.0654
     43 H         -0.743675   9.1519   2.674759 H        1 UNL1     0.0654
     44 H         -0.190864   6.787215   2.767607 H        1 UNL1     0.0623
     45 H         -3.270013   10.510127   4.659017 H        1 UNL1     0.2921
     46 H         -3.465411   3.231258   -0.476389 H        1 UNL1     0.2922
     47 H         0.518935   0.757707   -2.971451 H        1 UNL1     0.2126
     48 H         1.456914   -1.054596   1.347485 H        1 UNL1     0.2101
     49 H         -0.189607   2.752131   2.038997 H        1 UNL1     0.2100
     50 H         3.501382   1.76582   2.469345 H        1 UNL1     0.2102
@<TRIPOS>BOND
     1     1     2    1
     2     1     6    1
     3     2     3    1
     4     3     4    1
     5     3    29    1
     6     3    33    1
     7     4     5    1
     8     5     6    1
     9     5     7    1
    10     5    35    1
    11     7     8    1
    12     8     9   ar
    13     8    13   ar
    14     9    10   ar
    15     9    36    1
    16    10    11   ar
    17    10    26    1
    18    11    12   ar
    19    11    14    1
    20    12    13   ar
    21    12    17    1
    22    13    37    1
    23    14    15    1
    24    14    25    2
    25    15    16    1
    26    15    38    1
    27    15    39    1
    28    16    17    1
    29    16    18    1
    30    16    40    1
    31    18    19   ar
    32    18    23   ar
    33    19    20   ar
    34    19    41    1
    35    20    21   ar
    36    20    42    1
    37    21    22   ar
    38    21    24    1
    39    22    23   ar
    40    22    43    1
    41    23    44    1
    42    24    45    1
    43    26    46    1
    44    27    47    1
    45    28    48    1
    46    29    49    1
    47    30    50    1
    48     1    31    1
    49     1    27    1
    50     2    32    1
    51     2    28    1
    52     4    34    1
    53     4    30    1
