@<TRIPOS>MOLECULE
*****
 50 53 0 0 0
SMALL
GASTEIGER

@<TRIPOS>ATOM
     1 C         -0.190626   -0.355535   2.146639 C.3        1 UNL1     0.1889
     2 C         -0.788113   0.0166   0.762997 C.3        1 UNL1     0.1342
     3 C         -1.50126   1.376672   0.717289 C.3        1 UNL1     0.1174
     4 C         -2.223602   1.71228   2.024464 C.3        1 UNL1     0.1456
     5 C         -1.350623   1.450304   3.265286 C.3        1 UNL1     0.2326
     6 O         -0.921455   0.090715   3.2794 O.3        1 UNL1     -0.3076
     7 O         -0.26793   2.387004   3.412564 O.3        1 UNL1     -0.4605
     8 C         0.106883   2.681003   4.711259 C.ar        1 UNL1     0.1310
     9 C         -0.712869   3.276013   5.676283 C.ar        1 UNL1     0.0226
     10 C         -0.245194   3.518325   6.973382 C.ar        1 UNL1     0.1343
     11 C         1.047198   3.149388   7.344123 C.ar        1 UNL1     0.1007
     12 C         1.88861   2.591947   6.37765 C.ar        1 UNL1     0.1389
     13 C         1.418989   2.350825   5.072757 C.ar        1 UNL1     0.0229
     14 C         1.564856   3.305331   8.723205 C.2        1 UNL1     0.1740
     15 C         2.888742   2.654354   8.997259 C.3        1 UNL1     0.0520
     16 C         3.792075   2.873275   7.791432 C.3        1 UNL1     0.1322
     17 O         3.211732   2.290944   6.603507 O.3        1 UNL1     -0.4828
     18 C         4.257763   4.321812   7.625303 C.ar        1 UNL1     -0.0067
     19 C         4.809138   5.003006   8.729918 C.ar        1 UNL1     -0.0516
     20 C         5.201167   6.342874   8.624893 C.ar        1 UNL1     -0.0198
     21 C         5.040548   7.013307   7.425499 C.ar        1 UNL1     0.1169
     22 C         4.531641   6.359828   6.310681 C.ar        1 UNL1     -0.0198
     23 C         4.156662   5.014645   6.410332 C.ar        1 UNL1     -0.0516
     24 O         5.398514   8.328354   7.371519 O.3        1 UNL1     -0.5068
     25 O         0.936146   3.856096   9.62313 O.2        1 UNL1     -0.2917
     26 O         -1.094588   4.10269   7.867044 O.3        1 UNL1     -0.5058
     27 O         1.191427   -0.057427   2.264318 O.3        1 UNL1     -0.3648
     28 O         -1.75466   -0.986352   0.398881 O.3        1 UNL1     -0.3841
     29 O         -0.602356   2.406811   0.301455 O.3        1 UNL1     -0.3863
     30 O         -3.42174   0.911953   2.122603 O.3        1 UNL1     -0.3829
     31 H         -0.238617   -1.447174   2.224742 H        1 UNL1     0.0937
     32 H         0.0   0.0   0.0 H        1 UNL1     0.0671
     33 H         -2.269823   1.32615   -0.066597 H        1 UNL1     0.0649
     34 H         -2.538627   2.761627   2.018911 H        1 UNL1     0.0683
     35 H         -2.043239   1.574894   4.107094 H        1 UNL1     0.1085
     36 H         -1.744977   3.534742   5.466681 H        1 UNL1     0.0691
     37 H         2.094245   1.916787   4.3385 H        1 UNL1     0.0691
     38 H         2.704974   1.587701   9.16461 H        1 UNL1     0.0385
     39 H         3.313174   3.076367   9.914615 H        1 UNL1     0.0385
     40 H         4.707822   2.291512   7.963126 H        1 UNL1     0.0789
     41 H         4.937087   4.501638   9.684857 H        1 UNL1     0.0623
     42 H         5.614005   6.860637   9.487157 H        1 UNL1     0.0654
     43 H         4.415587   6.871032   5.362466 H        1 UNL1     0.0654
     44 H         3.77264   4.532478   5.516528 H        1 UNL1     0.0623
     45 H         5.767562   8.581367   8.233206 H        1 UNL1     0.2921
     46 H         -1.9427   4.287989   7.433705 H        1 UNL1     0.2922
     47 H         1.717291   -0.712635   1.784704 H        1 UNL1     0.2126
     48 H         -1.407052   -1.434115   -0.39636 H        1 UNL1     0.2101
     49 H         -0.262122   2.880766   1.076956 H        1 UNL1     0.2100
     50 H         -4.074068   1.410045   2.657472 H        1 UNL1     0.2102
@<TRIPOS>BOND
     1     1     2    1
     2     1     6    1
     3     2     3    1
     4     3     4    1
     5     3    29    1
     6     3    33    1
     7     4     5    1
     8     5     6    1
     9     5     7    1
    10     5    35    1
    11     7     8    1
    12     8     9   ar
    13     8    13   ar
    14     9    10   ar
    15     9    36    1
    16    10    11   ar
    17    10    26    1
    18    11    12   ar
    19    11    14    1
    20    12    13   ar
    21    12    17    1
    22    13    37    1
    23    14    15    1
    24    14    25    2
    25    15    16    1
    26    15    38    1
    27    15    39    1
    28    16    17    1
    29    16    18    1
    30    16    40    1
    31    18    19   ar
    32    18    23   ar
    33    19    20   ar
    34    19    41    1
    35    20    21   ar
    36    20    42    1
    37    21    22   ar
    38    21    24    1
    39    22    23   ar
    40    22    43    1
    41    23    44    1
    42    24    45    1
    43    26    46    1
    44    27    47    1
    45    28    48    1
    46    29    49    1
    47    30    50    1
    48     1    31    1
    49     1    27    1
    50     2    32    1
    51     2    28    1
    52     4    34    1
    53     4    30    1
