@<TRIPOS>MOLECULE
*****
 50 53 0 0 0
SMALL
GASTEIGER

@<TRIPOS>ATOM
     1 C         -0.336093   -1.331507   1.698509 C.3        1 UNL1     0.1889
     2 C         -0.464786   -0.974799   0.19314 C.3        1 UNL1     0.1342
     3 C         -1.905242   -0.957764   -0.340959 C.3        1 UNL1     0.1174
     4 C         -2.794366   -2.016542   0.315977 C.3        1 UNL1     0.1456
     5 C         -2.643803   -2.045768   1.847917 C.3        1 UNL1     0.2326
     6 O         -1.279631   -2.267742   2.198104 O.3        1 UNL1     -0.3076
     7 O         -3.216557   -0.898934   2.502169 O.3        1 UNL1     -0.4605
     8 C         -3.727817   -1.116231   3.769024 C.ar        1 UNL1     0.1310
     9 C         -4.546961   -2.188202   4.139405 C.ar        1 UNL1     0.0226
     10 C         -5.001333   -2.33068   5.455896 C.ar        1 UNL1     0.1343
     11 C         -4.627696   -1.416745   6.440253 C.ar        1 UNL1     0.1007
     12 C         -3.843691   -0.319602   6.07365 C.ar        1 UNL1     0.1389
     13 C         -3.389125   -0.175122   4.749291 C.ar        1 UNL1     0.0229
     14 C         -5.009866   -1.565095   7.863661 C.2        1 UNL1     0.1740
     15 C         -4.339512   -0.620684   8.817738 C.3        1 UNL1     0.0520
     16 C         -4.266501   0.752696   8.164704 C.3        1 UNL1     0.1322
     17 O         -3.507048   0.697023   6.937023 O.3        1 UNL1     -0.4828
     18 C         -5.624038   1.448561   8.039844 C.ar        1 UNL1     -0.0067
     19 C         -5.999629   2.017658   6.805635 C.ar        1 UNL1     -0.0516
     20 C         -7.213193   2.702372   6.670017 C.ar        1 UNL1     -0.0198
     21 C         -8.054642   2.830943   7.760549 C.ar        1 UNL1     0.1169
     22 C         -7.727828   2.252627   8.980214 C.ar        1 UNL1     -0.0198
     23 C         -6.522833   1.552   9.111227 C.ar        1 UNL1     -0.0516
     24 O         -9.210542   3.537117   7.60051 O.3        1 UNL1     -0.5068
     25 O         -5.761032   -2.446033   8.273762 O.2        1 UNL1     -0.2917
     26 O         -5.798362   -3.39786   5.751627 O.3        1 UNL1     -0.5058
     27 O         -0.228744   -0.195474   2.541535 O.3        1 UNL1     -0.3648
     28 O         0.264011   -1.953122   -0.57135 O.3        1 UNL1     -0.3841
     29 O         -2.459743   0.356939   -0.262112 O.3        1 UNL1     -0.3863
     30 O         -2.449439   -3.316914   -0.209141 O.3        1 UNL1     -0.3829
     31 H         0.623326   -1.846831   1.816977 H        1 UNL1     0.0937
     32 H         0.0   0.0   0.0 H        1 UNL1     0.0671
     33 H         -1.868082   -1.194913   -1.413386 H        1 UNL1     0.0649
     34 H         -3.843914   -1.835223   0.059124 H        1 UNL1     0.0683
     35 H         -3.200753   -2.941075   2.151417 H        1 UNL1     0.1085
     36 H         -4.82664   -2.962564   3.433528 H        1 UNL1     0.0691
     37 H         -2.780867   0.688527   4.489245 H        1 UNL1     0.0691
     38 H         -3.338242   -1.013641   9.024063 H        1 UNL1     0.0385
     39 H         -4.900389   -0.602582   9.758412 H        1 UNL1     0.0385
     40 H         -3.670612   1.394911   8.827273 H        1 UNL1     0.0789
     41 H         -5.352422   1.938396   5.93702 H        1 UNL1     0.0623
     42 H         -7.48609   3.147062   5.716187 H        1 UNL1     0.0654
     43 H         -8.38641   2.334345   9.836661 H        1 UNL1     0.0654
     44 H         -6.304395   1.103899   10.075767 H        1 UNL1     0.0623
     45 H         -8.981951   4.446809   7.349664 H        1 UNL1     0.2921
     46 H         -5.396259   -3.91306   6.46877 H        1 UNL1     0.2922
     47 H         0.51398   0.358635   2.263716 H        1 UNL1     0.2126
     48 H         1.199672   -1.878364   -0.301753 H        1 UNL1     0.2101
     49 H         -2.019262   0.939744   -0.900947 H        1 UNL1     0.2100
     50 H         -2.682113   -3.329233   -1.160678 H        1 UNL1     0.2102
@<TRIPOS>BOND
     1     1     2    1
     2     1     6    1
     3     2     3    1
     4     3     4    1
     5     3    29    1
     6     3    33    1
     7     4     5    1
     8     5     6    1
     9     5     7    1
    10     5    35    1
    11     7     8    1
    12     8     9   ar
    13     8    13   ar
    14     9    10   ar
    15     9    36    1
    16    10    11   ar
    17    10    26    1
    18    11    12   ar
    19    11    14    1
    20    12    13   ar
    21    12    17    1
    22    13    37    1
    23    14    15    1
    24    14    25    2
    25    15    16    1
    26    15    38    1
    27    15    39    1
    28    16    17    1
    29    16    18    1
    30    16    40    1
    31    18    19   ar
    32    18    23   ar
    33    19    20   ar
    34    19    41    1
    35    20    21   ar
    36    20    42    1
    37    21    22   ar
    38    21    24    1
    39    22    23   ar
    40    22    43    1
    41    23    44    1
    42    24    45    1
    43    26    46    1
    44    27    47    1
    45    28    48    1
    46    29    49    1
    47    30    50    1
    48     1    31    1
    49     1    27    1
    50     2    32    1
    51     2    28    1
    52     4    34    1
    53     4    30    1
