@<TRIPOS>MOLECULE
*****
 50 53 0 0 0
SMALL
GASTEIGER

@<TRIPOS>ATOM
     1 C         -0.322878   -1.362213   1.676583 C.3        1 UNL1     0.1889
     2 C         -0.46456   -0.977549   0.179285 C.3        1 UNL1     0.1342
     3 C         -1.909738   -0.948618   -0.341376 C.3        1 UNL1     0.1174
     4 C         -2.794573   -2.018112   0.303887 C.3        1 UNL1     0.1456
     5 C         -2.630269   -2.075872   1.833603 C.3        1 UNL1     0.2326
     6 O         -1.26335   -2.3062   2.167294 O.3        1 UNL1     -0.3076
     7 O         -3.195305   -0.940528   2.51408 O.3        1 UNL1     -0.4605
     8 C         -3.705711   -1.182866   3.776731 C.ar        1 UNL1     0.1310
     9 C         -4.530417   -2.258053   4.124774 C.ar        1 UNL1     0.0226
     10 C         -4.983422   -2.427017   5.4386 C.ar        1 UNL1     0.1343
     11 C         -4.602883   -1.537245   6.442261 C.ar        1 UNL1     0.1007
     12 C         -3.813163   -0.436775   6.098615 C.ar        1 UNL1     0.1389
     13 C         -3.359967   -0.265637   4.776966 C.ar        1 UNL1     0.0229
     14 C         -4.983544   -1.714859   7.86272 C.2        1 UNL1     0.1740
     15 C         -4.306167   -0.795651   8.836253 C.3        1 UNL1     0.0520
     16 C         -4.226308   0.5914   8.213625 C.3        1 UNL1     0.1322
     17 O         -3.469225   0.558549   6.983659 O.3        1 UNL1     -0.4828
     18 C         -5.580009   1.297634   8.106608 C.ar        1 UNL1     -0.0067
     19 C         -5.947972   1.908952   6.890423 C.ar        1 UNL1     -0.0516
     20 C         -7.157713   2.603692   6.772836 C.ar        1 UNL1     -0.0198
     21 C         -8.002872   2.700344   7.863795 C.ar        1 UNL1     0.1169
     22 C         -7.683672   2.08053   9.064953 C.ar        1 UNL1     -0.0198
     23 C         -6.482557   1.37008   9.17738 C.ar        1 UNL1     -0.0516
     24 O         -9.154752   3.417055   7.72273 O.3        1 UNL1     -0.5068
     25 O         -5.739104   -2.600332   8.254576 O.2        1 UNL1     -0.2917
     26 O         -5.786109   -3.49589   5.712078 O.3        1 UNL1     -0.5058
     27 O         -0.206157   -0.242115   2.539451 O.3        1 UNL1     -0.3648
     28 O         0.255786   -1.942592   -0.609703 O.3        1 UNL1     -0.3841
     29 O         -2.46144   0.365181   -0.233245 O.3        1 UNL1     -0.3863
     30 O         -2.456433   -3.309035   -0.248263 O.3        1 UNL1     -0.3829
     31 H         0.636758   -1.880987   1.776838 H        1 UNL1     0.0937
     32 H         0.0   0.0   0.0 H        1 UNL1     0.0671
     33 H         -1.882609   -1.165948   -1.418294 H        1 UNL1     0.0649
     34 H         -3.846105   -1.8306   0.059919 H        1 UNL1     0.0683
     35 H         -3.18587   -2.975854   2.125526 H        1 UNL1     0.1085
     36 H         -4.815733   -3.01499   3.402443 H        1 UNL1     0.0691
     37 H         -2.747162   0.600052   4.535 H        1 UNL1     0.0691
     38 H         -3.306843   -1.198815   9.032049 H        1 UNL1     0.0385
     39 H         -4.865371   -0.795151   9.778097 H        1 UNL1     0.0385
     40 H         -3.625623   1.215368   8.889171 H        1 UNL1     0.0789
     41 H         -5.297698   1.855213   6.022145 H        1 UNL1     0.0623
     42 H         -7.424692   3.080922   5.833164 H        1 UNL1     0.0654
     43 H         -8.34526   2.137181   9.921108 H        1 UNL1     0.0654
     44 H         -6.270095   0.889353   10.127436 H        1 UNL1     0.0623
     45 H         -8.920451   4.3389   7.527739 H        1 UNL1     0.2921
     46 H         -5.386484   -4.028371   6.417894 H        1 UNL1     0.2922
     47 H         0.523678   0.325371   2.254566 H        1 UNL1     0.2126
     48 H         1.19747   -1.856425   -0.365697 H        1 UNL1     0.2101
     49 H         -2.031597   0.957125   -0.870922 H        1 UNL1     0.2100
     50 H         -2.702899   -3.305365   -1.196394 H        1 UNL1     0.2102
@<TRIPOS>BOND
     1     1     2    1
     2     1     6    1
     3     2     3    1
     4     3     4    1
     5     3    29    1
     6     3    33    1
     7     4     5    1
     8     5     6    1
     9     5     7    1
    10     5    35    1
    11     7     8    1
    12     8     9   ar
    13     8    13   ar
    14     9    10   ar
    15     9    36    1
    16    10    11   ar
    17    10    26    1
    18    11    12   ar
    19    11    14    1
    20    12    13   ar
    21    12    17    1
    22    13    37    1
    23    14    15    1
    24    14    25    2
    25    15    16    1
    26    15    38    1
    27    15    39    1
    28    16    17    1
    29    16    18    1
    30    16    40    1
    31    18    19   ar
    32    18    23   ar
    33    19    20   ar
    34    19    41    1
    35    20    21   ar
    36    20    42    1
    37    21    22   ar
    38    21    24    1
    39    22    23   ar
    40    22    43    1
    41    23    44    1
    42    24    45    1
    43    26    46    1
    44    27    47    1
    45    28    48    1
    46    29    49    1
    47    30    50    1
    48     1    31    1
    49     1    27    1
    50     2    32    1
    51     2    28    1
    52     4    34    1
    53     4    30    1
