@<TRIPOS>MOLECULE
*****
 50 53 0 0 0
SMALL
GASTEIGER

@<TRIPOS>ATOM
     1 C         0.202956   -1.235864   1.789484 C.3        1 UNL1     0.1889
     2 C         0.427809   -0.971687   0.276344 C.3        1 UNL1     0.1342
     3 C         -0.141495   -2.052944   -0.654913 C.3        1 UNL1     0.1174
     4 C         -0.046502   -3.459644   -0.058852 C.3        1 UNL1     0.1456
     5 C         -0.519933   -3.513525   1.405158 C.3        1 UNL1     0.2326
     6 O         0.234818   -2.596612   2.194137 O.3        1 UNL1     -0.3076
     7 O         -1.942146   -3.350849   1.554042 O.3        1 UNL1     -0.4605
     8 C         -2.731666   -4.168645   0.765754 C.ar        1 UNL1     0.1310
     9 C         -2.8459   -5.556706   0.898182 C.ar        1 UNL1     0.0226
     10 C         -3.687758   -6.296891   0.05955 C.ar        1 UNL1     0.1343
     11 C         -4.454691   -5.66332   -0.917303 C.ar        1 UNL1     0.1007
     12 C         -4.318109   -4.282876   -1.086135 C.ar        1 UNL1     0.1389
     13 C         -3.46956   -3.539197   -0.244507 C.ar        1 UNL1     0.0229
     14 C         -5.423025   -6.385342   -1.774721 C.2        1 UNL1     0.1740
     15 C         -6.320033   -5.52096   -2.611243 C.3        1 UNL1     0.0520
     16 C         -5.498072   -4.363022   -3.160348 C.3        1 UNL1     0.1322
     17 O         -4.942627   -3.573427   -2.085597 O.3        1 UNL1     -0.4828
     18 C         -4.485977   -4.778837   -4.230621 C.ar        1 UNL1     -0.0067
     19 C         -4.265806   -6.148983   -4.480498 C.ar        1 UNL1     -0.0516
     20 C         -3.31328   -6.564032   -5.418789 C.ar        1 UNL1     -0.0198
     21 C         -2.570951   -5.620989   -6.106862 C.ar        1 UNL1     0.1169
     22 C         -2.788466   -4.263947   -5.906956 C.ar        1 UNL1     -0.0198
     23 C         -3.753898   -3.848404   -4.98212 C.ar        1 UNL1     -0.0516
     24 O         -1.625862   -6.063258   -6.985272 O.3        1 UNL1     -0.5068
     25 O         -5.559046   -7.605917   -1.761314 O.2        1 UNL1     -0.2917
     26 O         -3.753077   -7.647726   0.239999 O.3        1 UNL1     -0.5058
     27 O         -0.924568   -0.557862   2.320323 O.3        1 UNL1     -0.3648
     28 O         1.844671   -0.898337   0.031748 O.3        1 UNL1     -0.3841
     29 O         -1.466406   -1.71681   -1.071757 O.3        1 UNL1     -0.3863
     30 O         1.324827   -3.908433   -0.11996 O.3        1 UNL1     -0.3829
     31 H         1.05606   -0.792527   2.314598 H        1 UNL1     0.0937
     32 H         0.0   0.0   -0.0 H        1 UNL1     0.0671
     33 H         0.461552   -2.055689   -1.573633 H        1 UNL1     0.0649
     34 H         -0.639949   -4.160073   -0.656867 H        1 UNL1     0.0683
     35 H         -0.24266   -4.5223   1.735873 H        1 UNL1     0.1085
     36 H         -2.318871   -6.100755   1.674309 H        1 UNL1     0.0691
     37 H         -3.380052   -2.465812   -0.397232 H        1 UNL1     0.0691
     38 H         -7.12836   -5.160528   -1.966089 H        1 UNL1     0.0385
     39 H         -6.763154   -6.128493   -3.407689 H        1 UNL1     0.0385
     40 H         -6.195476   -3.683266   -3.668365 H        1 UNL1     0.0789
     41 H         -4.82914   -6.908928   -3.946842 H        1 UNL1     0.0623
     42 H         -3.144359   -7.623658   -5.593917 H        1 UNL1     0.0654
     43 H         -2.223306   -3.51685   -6.451337 H        1 UNL1     0.0654
     44 H         -3.90488   -2.780286   -4.858937 H        1 UNL1     0.0623
     45 H         -0.949722   -5.37312   -7.081505 H        1 UNL1     0.2921
     46 H         -4.422993   -8.021459   -0.354095 H        1 UNL1     0.2922
     47 H         -0.642597   0.110762   2.960084 H        1 UNL1     0.2126
     48 H         2.029417   -1.491081   -0.722079 H        1 UNL1     0.2101
     49 H         -2.114266   -2.186056   -0.522322 H        1 UNL1     0.2100
     50 H         1.361737   -4.815895   0.247278 H        1 UNL1     0.2102
@<TRIPOS>BOND
     1     1     2    1
     2     1     6    1
     3     2     3    1
     4     3     4    1
     5     3    29    1
     6     3    33    1
     7     4     5    1
     8     5     6    1
     9     5     7    1
    10     5    35    1
    11     7     8    1
    12     8     9   ar
    13     8    13   ar
    14     9    10   ar
    15     9    36    1
    16    10    11   ar
    17    10    26    1
    18    11    12   ar
    19    11    14    1
    20    12    13   ar
    21    12    17    1
    22    13    37    1
    23    14    15    1
    24    14    25    2
    25    15    16    1
    26    15    38    1
    27    15    39    1
    28    16    17    1
    29    16    18    1
    30    16    40    1
    31    18    19   ar
    32    18    23   ar
    33    19    20   ar
    34    19    41    1
    35    20    21   ar
    36    20    42    1
    37    21    22   ar
    38    21    24    1
    39    22    23   ar
    40    22    43    1
    41    23    44    1
    42    24    45    1
    43    26    46    1
    44    27    47    1
    45    28    48    1
    46    29    49    1
    47    30    50    1
    48     1    31    1
    49     1    27    1
    50     2    32    1
    51     2    28    1
    52     4    34    1
    53     4    30    1
