@<TRIPOS>MOLECULE
*****
 50 53 0 0 0
SMALL
GASTEIGER

@<TRIPOS>ATOM
     1 C         -0.346039   -1.337221   1.692011 C.3        1 UNL1     0.1889
     2 C         -0.468315   -0.974188   0.187619 C.3        1 UNL1     0.1342
     3 C         -1.9068   -0.950818   -0.351531 C.3        1 UNL1     0.1174
     4 C         -2.801349   -2.009574   0.298034 C.3        1 UNL1     0.1456
     5 C         -2.656342   -2.045298   1.830373 C.3        1 UNL1     0.2326
     6 O         -1.294083   -2.272654   2.184529 O.3        1 UNL1     -0.3076
     7 O         -3.228079   -0.899385   2.487123 O.3        1 UNL1     -0.4605
     8 C         -3.751279   -1.121811   3.748201 C.ar        1 UNL1     0.1310
     9 C         -4.579619   -2.191396   4.104768 C.ar        1 UNL1     0.0226
     10 C         -5.04593   -2.33965   5.416438 C.ar        1 UNL1     0.1343
     11 C         -4.675446   -1.43417   6.40976 C.ar        1 UNL1     0.1007
     12 C         -3.882132   -0.339236   6.056836 C.ar        1 UNL1     0.1389
     13 C         -3.415551   -0.188932   4.737313 C.ar        1 UNL1     0.0229
     14 C         -5.070497   -1.589392   7.828913 C.2        1 UNL1     0.1740
     15 C         -4.402883   -0.65495   8.794655 C.3        1 UNL1     0.0520
     16 C         -4.316526   0.722123   8.151094 C.3        1 UNL1     0.1322
     17 O         -3.547031   0.669913   6.929529 O.3        1 UNL1     -0.4828
     18 C         -5.668974   1.426559   8.019263 C.ar        1 UNL1     -0.0067
     19 C         -6.024516   2.018635   6.789934 C.ar        1 UNL1     -0.0516
     20 C         -7.232905   2.711415   6.649173 C.ar        1 UNL1     -0.0198
     21 C         -8.089055   2.825227   7.729858 C.ar        1 UNL1     0.1169
     22 C         -7.782122   2.224419   8.943802 C.ar        1 UNL1     -0.0198
     23 C         -6.582308   1.515849   9.079565 C.ar        1 UNL1     -0.0516
     24 O         -9.239346   3.539607   7.565863 O.3        1 UNL1     -0.5068
     25 O         -5.830112   -2.468595   8.226998 O.2        1 UNL1     -0.2917
     26 O         -5.851496   -3.404095   5.698577 O.3        1 UNL1     -0.5058
     27 O         -0.238386   -0.20485   2.53991 O.3        1 UNL1     -0.3648
     28 O         0.260349   -1.951613   -0.578145 O.3        1 UNL1     -0.3841
     29 O         -2.45774   0.365184   -0.269447 O.3        1 UNL1     -0.3863
     30 O         -2.458345   -3.308865   -0.231004 O.3        1 UNL1     -0.3829
     31 H         0.611444   -1.855821   1.811848 H        1 UNL1     0.0937
     32 H         0.0   0.0   0.0 H        1 UNL1     0.0671
     33 H         -1.866503   -1.183832   -1.42475 H        1 UNL1     0.0649
     34 H         -3.849439   -1.824163   0.038169 H        1 UNL1     0.0683
     35 H         -3.216982   -2.94016   2.128337 H        1 UNL1     0.1085
     36 H         -4.857714   -2.959623   3.391598 H        1 UNL1     0.0691
     37 H         -2.800205   0.672848   4.487958 H        1 UNL1     0.0691
     38 H         -3.405649   -1.054961   9.006888 H        1 UNL1     0.0385
     39 H         -4.971595   -0.639621   9.730663 H        1 UNL1     0.0385
     40 H         -3.722625   1.356666   8.822776 H        1 UNL1     0.0789
     41 H         -5.365491   1.951236   5.92924 H        1 UNL1     0.0623
     42 H         -7.490288   3.173779   5.699443 H        1 UNL1     0.0654
     43 H         -8.452338   2.294538   9.792215 H        1 UNL1     0.0654
     44 H         -6.379546   1.050152   10.039179 H        1 UNL1     0.0623
     45 H         -9.003051   4.453058   7.336758 H        1 UNL1     0.2921
     46 H         -5.459115   -3.925384   6.416704 H        1 UNL1     0.2922
     47 H         0.506098   0.348888   2.266087 H        1 UNL1     0.2126
     48 H         1.195705   -1.878717   -0.306985 H        1 UNL1     0.2101
     49 H         -2.018996   0.947186   -0.910206 H        1 UNL1     0.2100
     50 H         -2.69289   -3.318648   -1.182111 H        1 UNL1     0.2102
@<TRIPOS>BOND
     1     1     2    1
     2     1     6    1
     3     2     3    1
     4     3     4    1
     5     3    29    1
     6     3    33    1
     7     4     5    1
     8     5     6    1
     9     5     7    1
    10     5    35    1
    11     7     8    1
    12     8     9   ar
    13     8    13   ar
    14     9    10   ar
    15     9    36    1
    16    10    11   ar
    17    10    26    1
    18    11    12   ar
    19    11    14    1
    20    12    13   ar
    21    12    17    1
    22    13    37    1
    23    14    15    1
    24    14    25    2
    25    15    16    1
    26    15    38    1
    27    15    39    1
    28    16    17    1
    29    16    18    1
    30    16    40    1
    31    18    19   ar
    32    18    23   ar
    33    19    20   ar
    34    19    41    1
    35    20    21   ar
    36    20    42    1
    37    21    22   ar
    38    21    24    1
    39    22    23   ar
    40    22    43    1
    41    23    44    1
    42    24    45    1
    43    26    46    1
    44    27    47    1
    45    28    48    1
    46    29    49    1
    47    30    50    1
    48     1    31    1
    49     1    27    1
    50     2    32    1
    51     2    28    1
    52     4    34    1
    53     4    30    1
