@<TRIPOS>MOLECULE
*****
 50 53 0 0 0
SMALL
GASTEIGER

@<TRIPOS>ATOM
     1 C         -1.521481   -0.625844   1.436739 C.3        1 UNL1     0.1889
     2 C         -0.637404   0.459481   0.765608 C.3        1 UNL1     0.1342
     3 C         0.243781   1.259626   1.737074 C.3        1 UNL1     0.1174
     4 C         -0.426854   1.490933   3.09349 C.3        1 UNL1     0.1456
     5 C         -1.066177   0.210816   3.66176 C.3        1 UNL1     0.2326
     6 O         -2.011587   -0.314127   2.732511 O.3        1 UNL1     -0.3076
     7 O         -0.103288   -0.764385   4.101246 O.3        1 UNL1     -0.4605
     8 C         -0.525182   -2.081712   4.087693 C.ar        1 UNL1     0.1310
     9 C         0.309707   -3.200924   4.175014 C.ar        1 UNL1     0.0226
     10 C         -0.216239   -4.498329   4.170058 C.ar        1 UNL1     0.1343
     11 C         -1.592961   -4.707585   4.101574 C.ar        1 UNL1     0.1007
     12 C         -2.434027   -3.599085   3.972662 C.ar        1 UNL1     0.1389
     13 C         -1.904761   -2.294745   3.975005 C.ar        1 UNL1     0.0229
     14 C         -2.207734   -6.053137   4.177058 C.2        1 UNL1     0.1740
     15 C         -3.701841   -6.077602   4.313413 C.3        1 UNL1     0.0520
     16 C         -4.285636   -4.998465   3.411967 C.3        1 UNL1     0.1322
     17 O         -3.794129   -3.693556   3.789727 O.3        1 UNL1     -0.4828
     18 C         -4.167811   -5.312842   1.918646 C.ar        1 UNL1     -0.0067
     19 C         -5.039895   -6.257001   1.338778 C.ar        1 UNL1     -0.0516
     20 C         -4.928152   -6.602591   -0.013274 C.ar        1 UNL1     -0.0198
     21 C         -3.945972   -6.017877   -0.792542 C.ar        1 UNL1     0.1169
     22 C         -3.093864   -5.06005   -0.25839 C.ar        1 UNL1     -0.0198
     23 C         -3.217303   -4.700676   1.089078 C.ar        1 UNL1     -0.0516
     24 O         -3.843109   -6.407207   -2.095708 O.3        1 UNL1     -0.5068
     25 O         -1.555761   -7.093506   4.209448 O.2        1 UNL1     -0.2917
     26 O         0.652163   -5.547106   4.256826 O.3        1 UNL1     -0.5058
     27 O         -0.954315   -1.925428   1.389943 O.3        1 UNL1     -0.3648
     28 O         -1.498371   1.398787   0.095424 O.3        1 UNL1     -0.3841
     29 O         1.538335   0.665799   1.853829 O.3        1 UNL1     -0.3863
     30 O         -1.452533   2.497363   2.949362 O.3        1 UNL1     -0.3829
     31 H         -2.431036   -0.706628   0.831544 H        1 UNL1     0.0937
     32 H         0.0   0.0   0.0 H        1 UNL1     0.0671
     33 H         0.416232   2.250722   1.294685 H        1 UNL1     0.0649
     34 H         0.304554   1.879112   3.810958 H        1 UNL1     0.0683
     35 H         -1.635289   0.562896   4.531259 H        1 UNL1     0.1085
     36 H         1.384014   -3.103584   4.286858 H        1 UNL1     0.0691
     37 H         -2.580744   -1.448582   3.872295 H        1 UNL1     0.0691
     38 H         -3.941623   -5.886267   5.364804 H        1 UNL1     0.0385
     39 H         -4.069538   -7.07651   4.055032 H        1 UNL1     0.0385
     40 H         -5.364144   -4.955134   3.615592 H        1 UNL1     0.0789
     41 H         -5.81327   -6.736879   1.931449 H        1 UNL1     0.0623
     42 H         -5.598929   -7.340801   -0.445843 H        1 UNL1     0.0654
     43 H         -2.330941   -4.584847   -0.863404 H        1 UNL1     0.0654
     44 H         -2.541684   -3.941145   1.470518 H        1 UNL1     0.0623
     45 H         -4.33554   -5.775364   -2.644344 H        1 UNL1     0.2921
     46 H         0.152539   -6.376278   4.322098 H        1 UNL1     0.2922
     47 H         -0.969985   -2.265164   0.484297 H        1 UNL1     0.2126
     48 H         -0.924672   2.115132   -0.238419 H        1 UNL1     0.2101
     49 H         1.487334   -0.13113   2.405278 H        1 UNL1     0.2100
     50 H         -1.122849   3.176613   2.32515 H        1 UNL1     0.2102
@<TRIPOS>BOND
     1     1     2    1
     2     1     6    1
     3     2     3    1
     4     3     4    1
     5     3    29    1
     6     3    33    1
     7     4     5    1
     8     5     6    1
     9     5     7    1
    10     5    35    1
    11     7     8    1
    12     8     9   ar
    13     8    13   ar
    14     9    10   ar
    15     9    36    1
    16    10    11   ar
    17    10    26    1
    18    11    12   ar
    19    11    14    1
    20    12    13   ar
    21    12    17    1
    22    13    37    1
    23    14    15    1
    24    14    25    2
    25    15    16    1
    26    15    38    1
    27    15    39    1
    28    16    17    1
    29    16    18    1
    30    16    40    1
    31    18    19   ar
    32    18    23   ar
    33    19    20   ar
    34    19    41    1
    35    20    21   ar
    36    20    42    1
    37    21    22   ar
    38    21    24    1
    39    22    23   ar
    40    22    43    1
    41    23    44    1
    42    24    45    1
    43    26    46    1
    44    27    47    1
    45    28    48    1
    46    29    49    1
    47    30    50    1
    48     1    31    1
    49     1    27    1
    50     2    32    1
    51     2    28    1
    52     4    34    1
    53     4    30    1
