@<TRIPOS>MOLECULE
*****
 50 53 0 0 0
SMALL
GASTEIGER

@<TRIPOS>ATOM
     1 C         -0.332513   -1.328226   1.70178 C.3        1 UNL1     0.1889
     2 C         -0.462813   -0.975232   0.195673 C.3        1 UNL1     0.1342
     3 C         -1.903629   -0.962164   -0.337568 C.3        1 UNL1     0.1174
     4 C         -2.790333   -2.021112   0.322357 C.3        1 UNL1     0.1456
     5 C         -2.638769   -2.046523   1.854267 C.3        1 UNL1     0.2326
     6 O         -1.273962   -2.265098   2.204116 O.3        1 UNL1     -0.3076
     7 O         -3.213297   -0.899274   2.506231 O.3        1 UNL1     -0.4605
     8 C         -3.722936   -1.114516   3.774091 C.ar        1 UNL1     0.1310
     9 C         -4.539512   -2.187269   4.147862 C.ar        1 UNL1     0.0226
     10 C         -4.992373   -2.327454   5.46512 C.ar        1 UNL1     0.1343
     11 C         -4.619725   -1.41033   6.446882 C.ar        1 UNL1     0.1007
     12 C         -3.838337   -0.312468   6.07686 C.ar        1 UNL1     0.1389
     13 C         -3.385294   -0.170302   4.751729 C.ar        1 UNL1     0.0229
     14 C         -5.000273   -1.555973   7.871005 C.2        1 UNL1     0.1740
     15 C         -4.331   -0.607834   8.822138 C.3        1 UNL1     0.0520
     16 C         -4.261441   0.764086   8.165666 C.3        1 UNL1     0.1322
     17 O         -3.503007   0.70697   6.937421 O.3        1 UNL1     -0.4828
     18 C         -5.620534   1.456826   8.040358 C.ar        1 UNL1     -0.0067
     19 C         -5.999624   2.019656   6.804345 C.ar        1 UNL1     -0.0516
     20 C         -7.214744   2.701469   6.668045 C.ar        1 UNL1     -0.0198
     21 C         -8.05429   2.833363   7.759646 C.ar        1 UNL1     0.1169
     22 C         -7.723989   2.261156   8.981251 C.ar        1 UNL1     -0.0198
     23 C         -6.517416   1.563395   9.113036 C.ar        1 UNL1     -0.0516
     24 O         -9.211836   3.536633   7.598715 O.3        1 UNL1     -0.5068
     25 O         -5.749231   -2.437456   8.283964 O.2        1 UNL1     -0.2917
     26 O         -5.786912   -3.395553   5.76421 O.3        1 UNL1     -0.5058
     27 O         -0.226803   -0.190052   2.54212 O.3        1 UNL1     -0.3648
     28 O         0.26737   -1.953928   -0.567015 O.3        1 UNL1     -0.3841
     29 O         -2.460579   0.351662   -0.261404 O.3        1 UNL1     -0.3863
     30 O         -2.443259   -3.322033   -0.199979 O.3        1 UNL1     -0.3829
     31 H         0.627957   -1.841453   1.820837 H        1 UNL1     0.0937
     32 H         0.0   0.0   0.0 H        1 UNL1     0.0671
     33 H         -1.86668   -1.201712   -1.409469 H        1 UNL1     0.0649
     34 H         -3.840382   -1.842379   0.06574 H        1 UNL1     0.0683
     35 H         -3.193829   -2.942183   2.160173 H        1 UNL1     0.1085
     36 H         -4.818235   -2.963942   3.444148 H        1 UNL1     0.0691
     37 H         -2.779069   0.693965   4.488999 H        1 UNL1     0.0691
     38 H         -3.328727   -0.998206   9.028498 H        1 UNL1     0.0385
     39 H         -4.891045   -0.588583   9.763285 H        1 UNL1     0.0385
     40 H         -3.666276   1.40916   8.826103 H        1 UNL1     0.0789
     41 H         -5.353976   1.937704   5.934821 H        1 UNL1     0.0623
     42 H         -7.490355   3.141347   5.712766 H        1 UNL1     0.0654
     43 H         -8.381041   2.345489   9.83862 H        1 UNL1     0.0654
     44 H         -6.296237   1.120051   10.079148 H        1 UNL1     0.0623
     45 H         -8.985638   4.443917   7.337205 H        1 UNL1     0.2921
     46 H         -5.382476   -3.908835   6.481417 H        1 UNL1     0.2922
     47 H         0.516494   0.363324   2.264371 H        1 UNL1     0.2126
     48 H         1.200187   -1.888939   -0.285303 H        1 UNL1     0.2101
     49 H         -2.021422   0.933894   -0.901671 H        1 UNL1     0.2100
     50 H         -2.676497   -3.336987   -1.151341 H        1 UNL1     0.2102
@<TRIPOS>BOND
     1     1     2    1
     2     1     6    1
     3     2     3    1
     4     3     4    1
     5     3    29    1
     6     3    33    1
     7     4     5    1
     8     5     6    1
     9     5     7    1
    10     5    35    1
    11     7     8    1
    12     8     9   ar
    13     8    13   ar
    14     9    10   ar
    15     9    36    1
    16    10    11   ar
    17    10    26    1
    18    11    12   ar
    19    11    14    1
    20    12    13   ar
    21    12    17    1
    22    13    37    1
    23    14    15    1
    24    14    25    2
    25    15    16    1
    26    15    38    1
    27    15    39    1
    28    16    17    1
    29    16    18    1
    30    16    40    1
    31    18    19   ar
    32    18    23   ar
    33    19    20   ar
    34    19    41    1
    35    20    21   ar
    36    20    42    1
    37    21    22   ar
    38    21    24    1
    39    22    23   ar
    40    22    43    1
    41    23    44    1
    42    24    45    1
    43    26    46    1
    44    27    47    1
    45    28    48    1
    46    29    49    1
    47    30    50    1
    48     1    31    1
    49     1    27    1
    50     2    32    1
    51     2    28    1
    52     4    34    1
    53     4    30    1
