@<TRIPOS>MOLECULE
*****
 50 53 0 0 0
SMALL
GASTEIGER

@<TRIPOS>ATOM
     1 C         0.435476   -1.841977   1.090085 C.3        1 UNL1     0.1889
     2 C         -0.171615   -0.416018   1.000519 C.3        1 UNL1     0.1342
     3 C         0.355881   0.572682   2.05156 C.3        1 UNL1     0.1174
     4 C         0.653824   -0.094107   3.396825 C.3        1 UNL1     0.1456
     5 C         1.449766   -1.403032   3.243353 C.3        1 UNL1     0.2326
     6 O         0.742003   -2.30587   2.396699 O.3        1 UNL1     -0.3076
     7 O         2.815397   -1.199238   2.837347 O.3        1 UNL1     -0.4605
     8 C         3.038557   -1.129777   1.473931 C.ar        1 UNL1     0.1310
     9 C         3.625549   -0.051685   0.802769 C.ar        1 UNL1     0.0226
     10 C         3.824884   -0.083464   -0.582567 C.ar        1 UNL1     0.1343
     11 C         3.463414   -1.205021   -1.327745 C.ar        1 UNL1     0.1007
     12 C         2.838924   -2.271058   -0.674782 C.ar        1 UNL1     0.1389
     13 C         2.636197   -2.237775   0.717778 C.ar        1 UNL1     0.0229
     14 C         3.727456   -1.326135   -2.780249 C.2        1 UNL1     0.1740
     15 C         3.478393   -2.681193   -3.374667 C.3        1 UNL1     0.0520
     16 C         2.208319   -3.251525   -2.758558 C.3        1 UNL1     0.1322
     17 O         2.345224   -3.377644   -1.32593 O.3        1 UNL1     -0.4828
     18 C         0.930501   -2.542487   -3.213719 C.ar        1 UNL1     -0.0067
     19 C         1.028459   -1.360488   -3.976277 C.ar        1 UNL1     -0.0516
     20 C         -0.119379   -0.661438   -4.368399 C.ar        1 UNL1     -0.0198
     21 C         -1.367845   -1.128996   -3.998875 C.ar        1 UNL1     0.1169
     22 C         -1.498049   -2.308103   -3.276661 C.ar        1 UNL1     -0.0198
     23 C         -0.351155   -3.017288   -2.900166 C.ar        1 UNL1     -0.0516
     24 O         -2.46124   -0.401233   -4.366636 O.3        1 UNL1     -0.5068
     25 O         4.195932   -0.417056   -3.460389 O.2        1 UNL1     -0.2917
     26 O         4.401558   1.001004   -1.176674 O.3        1 UNL1     -0.5058
     27 O         1.513265   -2.054977   0.192428 O.3        1 UNL1     -0.3648
     28 O         -1.596391   -0.514638   1.182164 O.3        1 UNL1     -0.3841
     29 O         1.468424   1.309945   1.540851 O.3        1 UNL1     -0.3863
     30 O         -0.591637   -0.384264   4.067888 O.3        1 UNL1     -0.3829
     31 H         -0.341219   -2.534693   0.74808 H        1 UNL1     0.0937
     32 H         0.0   0.0   0.0 H        1 UNL1     0.0671
     33 H         -0.429813   1.319106   2.233927 H        1 UNL1     0.0649
     34 H         1.211716   0.595071   4.040402 H        1 UNL1     0.0683
     35 H         1.441259   -1.837472   4.250859 H        1 UNL1     0.1085
     36 H         3.979189   0.825793   1.33295 H        1 UNL1     0.0691
     37 H         2.146798   -3.080026   1.202128 H        1 UNL1     0.0691
     38 H         4.345751   -3.30873   -3.14355 H        1 UNL1     0.0385
     39 H         3.404445   -2.587438   -4.463483 H        1 UNL1     0.0385
     40 H         2.11054   -4.285175   -3.117064 H        1 UNL1     0.0789
     41 H         1.997236   -0.96788   -4.271202 H        1 UNL1     0.0623
     42 H         -0.030235   0.255242   -4.946123 H        1 UNL1     0.0654
     43 H         -2.471532   -2.691297   -2.994877 H        1 UNL1     0.0654
     44 H         -0.4905   -3.940222   -2.34553 H        1 UNL1     0.0623
     45 H         -2.247638   0.083198   -5.180526 H        1 UNL1     0.2921
     46 H         5.131107   0.708454   -1.745519 H        1 UNL1     0.2922
     47 H         1.527109   -1.36367   -0.484153 H        1 UNL1     0.2126
     48 H         -1.899266   -1.254665   0.621485 H        1 UNL1     0.2101
     49 H         2.04489   0.723072   1.026011 H        1 UNL1     0.2100
     50 H         -0.82689   0.392786   4.616125 H        1 UNL1     0.2102
@<TRIPOS>BOND
     1     1     2    1
     2     1     6    1
     3     2     3    1
     4     3     4    1
     5     3    29    1
     6     3    33    1
     7     4     5    1
     8     5     6    1
     9     5     7    1
    10     5    35    1
    11     7     8    1
    12     8     9   ar
    13     8    13   ar
    14     9    10   ar
    15     9    36    1
    16    10    11   ar
    17    10    26    1
    18    11    12   ar
    19    11    14    1
    20    12    13   ar
    21    12    17    1
    22    13    37    1
    23    14    15    1
    24    14    25    2
    25    15    16    1
    26    15    38    1
    27    15    39    1
    28    16    17    1
    29    16    18    1
    30    16    40    1
    31    18    19   ar
    32    18    23   ar
    33    19    20   ar
    34    19    41    1
    35    20    21   ar
    36    20    42    1
    37    21    22   ar
    38    21    24    1
    39    22    23   ar
    40    22    43    1
    41    23    44    1
    42    24    45    1
    43    26    46    1
    44    27    47    1
    45    28    48    1
    46    29    49    1
    47    30    50    1
    48     1    31    1
    49     1    27    1
    50     2    32    1
    51     2    28    1
    52     4    34    1
    53     4    30    1
