@<TRIPOS>MOLECULE
*****
 50 53 0 0 0
SMALL
GASTEIGER

@<TRIPOS>ATOM
     1 C         -0.332463   -1.328203   1.701808 C.3        1 UNL1     0.1889
     2 C         -0.462787   -0.97524   0.195696 C.3        1 UNL1     0.1342
     3 C         -1.903607   -0.962218   -0.337531 C.3        1 UNL1     0.1174
     4 C         -2.790278   -2.021177   0.322422 C.3        1 UNL1     0.1456
     5 C         -2.638699   -2.046555   1.854331 C.3        1 UNL1     0.2326
     6 O         -1.273883   -2.265089   2.204171 O.3        1 UNL1     -0.3076
     7 O         -3.21325   -0.899308   2.506279 O.3        1 UNL1     -0.4605
     8 C         -3.722871   -1.11454   3.774148 C.ar        1 UNL1     0.1310
     9 C         -4.539416   -2.187306   4.147947 C.ar        1 UNL1     0.0226
     10 C         -4.992261   -2.327478   5.465212 C.ar        1 UNL1     0.1343
     11 C         -4.619626   -1.410326   6.446954 C.ar        1 UNL1     0.1007
     12 C         -3.83827   -0.312452   6.076903 C.ar        1 UNL1     0.1389
     13 C         -3.385244   -0.170298   4.751765 C.ar        1 UNL1     0.0229
     14 C         -5.000157   -1.555953   7.871083 C.2        1 UNL1     0.1740
     15 C         -4.330899   -0.607778   8.822191 C.3        1 UNL1     0.0520
     16 C         -4.261381   0.764131   8.165693 C.3        1 UNL1     0.1322
     17 O         -3.502958   0.707012   6.937442 O.3        1 UNL1     -0.4828
     18 C         -5.620493   1.456834   8.040385 C.ar        1 UNL1     -0.0067
     19 C         -5.999659   2.019529   6.804334 C.ar        1 UNL1     -0.0516
     20 C         -7.214798   2.701307   6.668027 C.ar        1 UNL1     -0.0198
     21 C         -8.054288   2.833299   7.759659 C.ar        1 UNL1     0.1169
     22 C         -7.723912   2.261226   8.981306 C.ar        1 UNL1     -0.0198
     23 C         -6.51732   1.563499   9.1131 C.ar        1 UNL1     -0.0516
     24 O         -9.211855   3.536533   7.598717 O.3        1 UNL1     -0.5068
     25 O         -5.749089   -2.437447   8.284065 O.2        1 UNL1     -0.2917
     26 O         -5.78677   -3.395592   5.76433 O.3        1 UNL1     -0.5058
     27 O         -0.226774   -0.19001   2.542126 O.3        1 UNL1     -0.3648
     28 O         0.267414   -1.953932   -0.56698 O.3        1 UNL1     -0.3841
     29 O         -2.46059   0.351595   -0.261387 O.3        1 UNL1     -0.3863
     30 O         -2.443176   -3.322099   -0.199893 O.3        1 UNL1     -0.3829
     31 H         0.628021   -1.841403   1.820866 H        1 UNL1     0.0937
     32 H         0.0   0.0   0.0 H        1 UNL1     0.0671
     33 H         -1.866663   -1.201786   -1.409428 H        1 UNL1     0.0649
     34 H         -3.840334   -1.842475   0.065812 H        1 UNL1     0.0683
     35 H         -3.193733   -2.942224   2.16026 H        1 UNL1     0.1085
     36 H         -4.818126   -2.964   3.444251 H        1 UNL1     0.0691
     37 H         -2.779043   0.693979   4.489013 H        1 UNL1     0.0691
     38 H         -3.328614   -0.998121   9.028549 H        1 UNL1     0.0385
     39 H         -4.890936   -0.588524   9.763343 H        1 UNL1     0.0385
     40 H         -3.666226   1.409233   8.826113 H        1 UNL1     0.0789
     41 H         -5.354055   1.937498   5.934784 H        1 UNL1     0.0623
     42 H         -7.490467   3.141081   5.712717 H        1 UNL1     0.0654
     43 H         -8.38092   2.345635   9.838701 H        1 UNL1     0.0654
     44 H         -6.296082   1.120259   10.079245 H        1 UNL1     0.0623
     45 H         -8.9857   4.443674   7.336675 H        1 UNL1     0.2921
     46 H         -5.382271   -3.908899   6.481484 H        1 UNL1     0.2922
     47 H         0.516506   0.36338   2.264359 H        1 UNL1     0.2126
     48 H         1.200172   -1.889159   -0.285024 H        1 UNL1     0.2101
     49 H         -2.021455   0.933826   -0.901669 H        1 UNL1     0.2100
     50 H         -2.676423   -3.337076   -1.151252 H        1 UNL1     0.2102
@<TRIPOS>BOND
     1     1     2    1
     2     1     6    1
     3     2     3    1
     4     3     4    1
     5     3    29    1
     6     3    33    1
     7     4     5    1
     8     5     6    1
     9     5     7    1
    10     5    35    1
    11     7     8    1
    12     8     9   ar
    13     8    13   ar
    14     9    10   ar
    15     9    36    1
    16    10    11   ar
    17    10    26    1
    18    11    12   ar
    19    11    14    1
    20    12    13   ar
    21    12    17    1
    22    13    37    1
    23    14    15    1
    24    14    25    2
    25    15    16    1
    26    15    38    1
    27    15    39    1
    28    16    17    1
    29    16    18    1
    30    16    40    1
    31    18    19   ar
    32    18    23   ar
    33    19    20   ar
    34    19    41    1
    35    20    21   ar
    36    20    42    1
    37    21    22   ar
    38    21    24    1
    39    22    23   ar
    40    22    43    1
    41    23    44    1
    42    24    45    1
    43    26    46    1
    44    27    47    1
    45    28    48    1
    46    29    49    1
    47    30    50    1
    48     1    31    1
    49     1    27    1
    50     2    32    1
    51     2    28    1
    52     4    34    1
    53     4    30    1
