@<TRIPOS>MOLECULE
*****
 50 53 0 0 0
SMALL
GASTEIGER

@<TRIPOS>ATOM
     1 C         -0.683854   -1.033052   1.798875 C.3        1 UNL1     0.1889
     2 C         -0.547844   -0.915098   0.256952 C.3        1 UNL1     0.1342
     3 C         -1.880398   -0.932746   -0.507543 C.3        1 UNL1     0.1174
     4 C         -2.925708   -1.84245   0.142753 C.3        1 UNL1     0.1456
     5 C         -3.024616   -1.63381   1.664939 C.3        1 UNL1     0.2326
     6 O         -1.750148   -1.844869   2.268307 O.3        1 UNL1     -0.3076
     7 O         -3.624358   -0.37856   2.033689 O.3        1 UNL1     -0.4605
     8 C         -4.343815   -0.374332   3.215168 C.ar        1 UNL1     0.1310
     9 C         -5.274836   -1.344923   3.600467 C.ar        1 UNL1     0.0226
     10 C         -5.941666   -1.260973   4.828552 C.ar        1 UNL1     0.1343
     11 C         -5.675796   -0.216026   5.71243 C.ar        1 UNL1     0.1007
     12 C         -4.778482   0.781221   5.321137 C.ar        1 UNL1     0.1389
     13 C         -4.110083   0.697991   4.085116 C.ar        1 UNL1     0.0229
     14 C         -6.28894   -0.12342   7.057655 C.2        1 UNL1     0.1740
     15 C         -5.724039   0.936499   7.957103 C.3        1 UNL1     0.0520
     16 C         -5.464772   2.18557   7.126104 C.3        1 UNL1     0.1322
     17 O         -4.523515   1.909593   6.065472 O.3        1 UNL1     -0.4828
     18 C         -6.740361   2.899514   6.672364 C.ar        1 UNL1     -0.0067
     19 C         -6.879883   3.275878   5.320662 C.ar        1 UNL1     -0.0516
     20 C         -8.012566   3.97205   4.882099 C.ar        1 UNL1     -0.0198
     21 C         -9.007085   4.303463   5.784831 C.ar        1 UNL1     0.1169
     22 C         -8.913882   3.91738   7.115654 C.ar        1 UNL1     -0.0198
     23 C         -7.789881   3.205074   7.550736 C.ar        1 UNL1     -0.0516
     24 O         -10.077761   5.014861   5.328797 O.3        1 UNL1     -0.5068
     25 O         -7.147806   -0.901572   7.464244 O.2        1 UNL1     -0.2917
     26 O         -6.838669   -2.239441   5.1441 O.3        1 UNL1     -0.5058
     27 O         -0.644446   0.217765   2.467225 O.3        1 UNL1     -0.3648
     28 O         0.233495   -2.02697   -0.218397 O.3        1 UNL1     -0.3841
     29 O         -2.359797   0.396346   -0.721604 O.3        1 UNL1     -0.3863
     30 O         -2.580408   -3.22081   -0.115282 O.3        1 UNL1     -0.3829
     31 H         0.211226   -1.556193   2.152759 H        1 UNL1     0.0937
     32 H         0.0   0.0   -0.0 H        1 UNL1     0.0671
     33 H         -1.686289   -1.337965   -1.510459 H        1 UNL1     0.0649
     34 H         -3.907617   -1.667676   -0.310798 H        1 UNL1     0.0683
     35 H         -3.676136   -2.449774   2.00199 H        1 UNL1     0.1085
     36 H         -5.484244   -2.211247   2.982608 H        1 UNL1     0.0691
     37 H         -3.417062   1.487839   3.803412 H        1 UNL1     0.0691
     38 H         -4.79422   0.546726   8.384936 H        1 UNL1     0.0385
     39 H         -6.42601   1.122998   8.777002 H        1 UNL1     0.0385
     40 H         -4.944859   2.903658   7.77461 H        1 UNL1     0.0789
     41 H         -6.109011   3.035543   4.59427 H        1 UNL1     0.0623
     42 H         -8.102979   4.267115   3.839615 H        1 UNL1     0.0654
     43 H         -9.693883   4.158583   7.827926 H        1 UNL1     0.0654
     44 H         -7.755043   2.910272   8.595113 H        1 UNL1     0.0623
     45 H         -9.756676   5.861562   4.978486 H        1 UNL1     0.2921
     46 H         -6.588271   -2.648037   5.98776 H        1 UNL1     0.2922
     47 H         0.166651   0.693459   2.239857 H        1 UNL1     0.2126
     48 H         1.111234   -1.95257   0.203234 H        1 UNL1     0.2101
     49 H         -1.788098   0.85493   -1.357728 H        1 UNL1     0.2100
     50 H         -2.657915   -3.375625   -1.079511 H        1 UNL1     0.2102
@<TRIPOS>BOND
     1     1     2    1
     2     1     6    1
     3     2     3    1
     4     3     4    1
     5     3    29    1
     6     3    33    1
     7     4     5    1
     8     5     6    1
     9     5     7    1
    10     5    35    1
    11     7     8    1
    12     8     9   ar
    13     8    13   ar
    14     9    10   ar
    15     9    36    1
    16    10    11   ar
    17    10    26    1
    18    11    12   ar
    19    11    14    1
    20    12    13   ar
    21    12    17    1
    22    13    37    1
    23    14    15    1
    24    14    25    2
    25    15    16    1
    26    15    38    1
    27    15    39    1
    28    16    17    1
    29    16    18    1
    30    16    40    1
    31    18    19   ar
    32    18    23   ar
    33    19    20   ar
    34    19    41    1
    35    20    21   ar
    36    20    42    1
    37    21    22   ar
    38    21    24    1
    39    22    23   ar
    40    22    43    1
    41    23    44    1
    42    24    45    1
    43    26    46    1
    44    27    47    1
    45    28    48    1
    46    29    49    1
    47    30    50    1
    48     1    31    1
    49     1    27    1
    50     2    32    1
    51     2    28    1
    52     4    34    1
    53     4    30    1
