@<TRIPOS>MOLECULE
*****
 50 53 0 0 0
SMALL
GASTEIGER

@<TRIPOS>ATOM
     1 C         -0.160062   -1.816171   1.202791 C.3        1 UNL1     0.1889
     2 C         -0.677716   -0.423995   0.751327 C.3        1 UNL1     0.1342
     3 C         -0.862451   0.591428   1.889419 C.3        1 UNL1     0.1174
     4 C         -1.329003   -0.058257   3.194546 C.3        1 UNL1     0.1456
     5 C         -0.524935   -1.323779   3.544251 C.3        1 UNL1     0.2326
     6 O         -0.606914   -2.262807   2.474497 O.3        1 UNL1     -0.3076
     7 O         0.827192   -1.048938   3.953562 O.3        1 UNL1     -0.4605
     8 C         1.474899   -2.067427   4.629345 C.ar        1 UNL1     0.1310
     9 C         2.790437   -2.017278   5.102785 C.ar        1 UNL1     0.0226
     10 C         3.352938   -3.097673   5.792887 C.ar        1 UNL1     0.1343
     11 C         2.604919   -4.246397   6.047335 C.ar        1 UNL1     0.1007
     12 C         1.303695   -4.324362   5.543827 C.ar        1 UNL1     0.1389
     13 C         0.739217   -3.238933   4.847667 C.ar        1 UNL1     0.0229
     14 C         3.121222   -5.383575   6.843835 C.2        1 UNL1     0.1740
     15 C         2.112118   -6.432978   7.207167 C.3        1 UNL1     0.0520
     16 C         1.204451   -6.664605   6.006981 C.3        1 UNL1     0.1322
     17 O         0.516181   -5.447933   5.642204 O.3        1 UNL1     -0.4828
     18 C         1.894289   -7.377131   4.841153 C.ar        1 UNL1     -0.0067
     19 C         1.112892   -7.911163   3.795954 C.ar        1 UNL1     -0.0516
     20 C         1.708153   -8.609942   2.738913 C.ar        1 UNL1     -0.0198
     21 C         3.079993   -8.787424   2.71936 C.ar        1 UNL1     0.1169
     22 C         3.879358   -8.244463   3.716881 C.ar        1 UNL1     -0.0198
     23 C         3.286126   -7.529765   4.764421 C.ar        1 UNL1     -0.0516
     24 O         3.620376   -9.505944   1.693633 O.3        1 UNL1     -0.5068
     25 O         4.274592   -5.448428   7.260989 O.2        1 UNL1     -0.2917
     26 O         4.641442   -2.985587   6.227373 O.3        1 UNL1     -0.5058
     27 O         1.242297   -1.97284   1.055714 O.3        1 UNL1     -0.3648
     28 O         -1.959638   -0.597001   0.119307 O.3        1 UNL1     -0.3841
     29 O         0.313749   1.385708   2.056166 O.3        1 UNL1     -0.3863
     30 O         -2.72385   -0.412933   3.074985 O.3        1 UNL1     -0.3829
     31 H         -0.587423   -2.548755   0.50942 H        1 UNL1     0.0937
     32 H         0.0   0.0   0.0 H        1 UNL1     0.0671
     33 H         -1.649547   1.29577   1.585933 H        1 UNL1     0.0649
     34 H         -1.250258   0.659469   4.018603 H        1 UNL1     0.0683
     35 H         -1.06996   -1.757627   4.391955 H        1 UNL1     0.1085
     36 H         3.405093   -1.131453   4.986027 H        1 UNL1     0.0691
     37 H         -0.275448   -3.325132   4.464889 H        1 UNL1     0.0691
     38 H         1.543503   -6.06217   8.066647 H        1 UNL1     0.0385
     39 H         2.63659   -7.345071   7.511788 H        1 UNL1     0.0385
     40 H         0.405703   -7.34508   6.331749 H        1 UNL1     0.0789
     41 H         0.033195   -7.793288   3.792954 H        1 UNL1     0.0623
     42 H         1.093674   -9.027257   1.945013 H        1 UNL1     0.0654
     43 H         4.956068   -8.364571   3.703463 H        1 UNL1     0.0654
     44 H         3.941959   -7.110245   5.52121 H        1 UNL1     0.0623
     45 H         3.069121   -9.376727   0.904876 H        1 UNL1     0.2921
     46 H         4.659056   -2.49566   7.064674 H        1 UNL1     0.2922
     47 H         1.697319   -1.68701   1.860149 H        1 UNL1     0.2126
     48 H         -1.782804   -0.84954   -0.807346 H        1 UNL1     0.2101
     49 H         0.851376   1.030927   2.782032 H        1 UNL1     0.2100
     50 H         -3.069002   -0.006242   2.253289 H        1 UNL1     0.2102
@<TRIPOS>BOND
     1     1     2    1
     2     1     6    1
     3     2     3    1
     4     3     4    1
     5     3    29    1
     6     3    33    1
     7     4     5    1
     8     5     6    1
     9     5     7    1
    10     5    35    1
    11     7     8    1
    12     8     9   ar
    13     8    13   ar
    14     9    10   ar
    15     9    36    1
    16    10    11   ar
    17    10    26    1
    18    11    12   ar
    19    11    14    1
    20    12    13   ar
    21    12    17    1
    22    13    37    1
    23    14    15    1
    24    14    25    2
    25    15    16    1
    26    15    38    1
    27    15    39    1
    28    16    17    1
    29    16    18    1
    30    16    40    1
    31    18    19   ar
    32    18    23   ar
    33    19    20   ar
    34    19    41    1
    35    20    21   ar
    36    20    42    1
    37    21    22   ar
    38    21    24    1
    39    22    23   ar
    40    22    43    1
    41    23    44    1
    42    24    45    1
    43    26    46    1
    44    27    47    1
    45    28    48    1
    46    29    49    1
    47    30    50    1
    48     1    31    1
    49     1    27    1
    50     2    32    1
    51     2    28    1
    52     4    34    1
    53     4    30    1
