@<TRIPOS>MOLECULE
*****
 50 53 0 0 0
SMALL
GASTEIGER

@<TRIPOS>ATOM
     1 C         -1.537315   -0.56823   1.443809 C.3        1 UNL1     0.1889
     2 C         -0.666635   0.492821   0.718531 C.3        1 UNL1     0.1342
     3 C         0.170772   1.381333   1.651141 C.3        1 UNL1     0.1174
     4 C         -0.536725   1.685947   2.973932 C.3        1 UNL1     0.1456
     5 C         -1.155348   0.430377   3.615191 C.3        1 UNL1     0.2326
     6 O         -2.065093   -0.182574   2.70441 O.3        1 UNL1     -0.3076
     7 O         -0.17772   -0.485651   4.140981 O.3        1 UNL1     -0.4605
     8 C         -0.565442   -1.21497   5.250618 C.ar        1 UNL1     0.1310
     9 C         -0.919624   -0.675235   6.491803 C.ar        1 UNL1     0.0226
     10 C         -1.315968   -1.498504   7.552484 C.ar        1 UNL1     0.1343
     11 C         -1.390685   -2.881234   7.390265 C.ar        1 UNL1     0.1007
     12 C         -1.000135   -3.435003   6.168138 C.ar        1 UNL1     0.1389
     13 C         -0.599119   -2.607192   5.102612 C.ar        1 UNL1     0.0229
     14 C         -1.882915   -3.791016   8.450529 C.2        1 UNL1     0.1740
     15 C         -2.107701   -5.214328   8.031954 C.3        1 UNL1     0.0520
     16 C         -0.971474   -5.629886   7.107693 C.3        1 UNL1     0.1322
     17 O         -0.931631   -4.788763   5.933813 O.3        1 UNL1     -0.4828
     18 C         0.374208   -5.790289   7.819125 C.ar        1 UNL1     -0.0067
     19 C         1.463223   -6.353052   7.122305 C.ar        1 UNL1     -0.0516
     20 C         2.69401   -6.557486   7.75739 C.ar        1 UNL1     -0.0198
     21 C         2.845991   -6.21095   9.088045 C.ar        1 UNL1     0.1169
     22 C         1.802192   -5.623932   9.791417 C.ar        1 UNL1     -0.0198
     23 C         0.576918   -5.402391   9.151356 C.ar        1 UNL1     -0.0516
     24 O         4.047574   -6.45974   9.683612 O.3        1 UNL1     -0.5068
     25 O         -2.172741   -3.414945   9.58325 O.2        1 UNL1     -0.2917
     26 O         -1.647556   -0.909418   8.737647 O.3        1 UNL1     -0.5058
     27 O         -0.93551   -1.851829   1.498493 O.3        1 UNL1     -0.3648
     28 O         -1.536154   1.360142   -0.032732 O.3        1 UNL1     -0.3841
     29 O         1.477347   0.832807   1.835844 O.3        1 UNL1     -0.3863
     30 O         -1.58472   2.651516   2.739258 O.3        1 UNL1     -0.3829
     31 H         -2.430276   -0.71515   0.826465 H        1 UNL1     0.0937
     32 H         0.0   0.0   0.0 H        1 UNL1     0.0671
     33 H         0.327449   2.344357   1.145416 H        1 UNL1     0.0649
     34 H         0.167593   2.142163   3.67835 H        1 UNL1     0.0683
     35 H         -1.753322   0.825053   4.446176 H        1 UNL1     0.1085
     36 H         -0.936014   0.39532   6.664322 H        1 UNL1     0.0691
     37 H         -0.298862   -3.063098   4.161608 H        1 UNL1     0.0691
     38 H         -3.072879   -5.259386   7.516272 H        1 UNL1     0.0385
     39 H         -2.167159   -5.845937   8.924878 H        1 UNL1     0.0385
     40 H         -1.216958   -6.628515   6.72169 H        1 UNL1     0.0789
     41 H         1.366654   -6.641919   6.07977 H        1 UNL1     0.0623
     42 H         3.522614   -7.003249   7.212668 H        1 UNL1     0.0654
     43 H         1.915001   -5.334902   10.829515 H        1 UNL1     0.0654
     44 H         -0.213549   -4.932005   9.728195 H        1 UNL1     0.0623
     45 H         4.514295   -7.133392   9.162957 H        1 UNL1     0.2921
     46 H         -2.46131   -1.310436   9.081742 H        1 UNL1     0.2922
     47 H         -0.382081   -1.928775   2.288212 H        1 UNL1     0.2126
     48 H         -2.088767   1.834176   0.618146 H        1 UNL1     0.2101
     49 H         1.48379   -0.100787   1.570979 H        1 UNL1     0.2100
     50 H         -2.375202   2.167452   2.422186 H        1 UNL1     0.2102
@<TRIPOS>BOND
     1     1     2    1
     2     1     6    1
     3     2     3    1
     4     3     4    1
     5     3    29    1
     6     3    33    1
     7     4     5    1
     8     5     6    1
     9     5     7    1
    10     5    35    1
    11     7     8    1
    12     8     9   ar
    13     8    13   ar
    14     9    10   ar
    15     9    36    1
    16    10    11   ar
    17    10    26    1
    18    11    12   ar
    19    11    14    1
    20    12    13   ar
    21    12    17    1
    22    13    37    1
    23    14    15    1
    24    14    25    2
    25    15    16    1
    26    15    38    1
    27    15    39    1
    28    16    17    1
    29    16    18    1
    30    16    40    1
    31    18    19   ar
    32    18    23   ar
    33    19    20   ar
    34    19    41    1
    35    20    21   ar
    36    20    42    1
    37    21    22   ar
    38    21    24    1
    39    22    23   ar
    40    22    43    1
    41    23    44    1
    42    24    45    1
    43    26    46    1
    44    27    47    1
    45    28    48    1
    46    29    49    1
    47    30    50    1
    48     1    31    1
    49     1    27    1
    50     2    32    1
    51     2    28    1
    52     4    34    1
    53     4    30    1
