@<TRIPOS>MOLECULE
*****
 50 53 0 0 0
SMALL
GASTEIGER

@<TRIPOS>ATOM
     1 C         0.324228   -0.624831   2.067672 C.3        1 UNL1     0.1889
     2 C         0.019218   -0.932863   0.577026 C.3        1 UNL1     0.1342
     3 C         -1.290669   -1.698572   0.335467 C.3        1 UNL1     0.1174
     4 C         -1.60484   -2.702711   1.447277 C.3        1 UNL1     0.1456
     5 C         -1.424715   -2.101968   2.853345 C.3        1 UNL1     0.2326
     6 O         -0.096301   -1.606398   3.003662 O.3        1 UNL1     -0.3076
     7 O         -2.432268   -1.133127   3.196132 O.3        1 UNL1     -0.4605
     8 C         -2.767625   -1.05539   4.535916 C.ar        1 UNL1     0.1310
     9 C         -3.019257   -2.147777   5.372978 C.ar        1 UNL1     0.0226
     10 C         -3.335717   -1.96611   6.724552 C.ar        1 UNL1     0.1343
     11 C         -3.384905   -0.6874   7.278014 C.ar        1 UNL1     0.1007
     12 C         -3.175839   0.413217   6.442719 C.ar        1 UNL1     0.1389
     13 C         -2.860257   0.230405   5.083153 C.ar        1 UNL1     0.0229
     14 C         -3.6318   -0.442032   8.717803 C.2        1 UNL1     0.1740
     15 C         -3.429171   0.971173   9.179691 C.3        1 UNL1     0.0520
     16 C         -3.985755   1.90959   8.117832 C.3        1 UNL1     0.1322
     17 O         -3.306212   1.718329   6.857391 O.3        1 UNL1     -0.4828
     18 C         -5.513374   1.896294   8.023341 C.ar        1 UNL1     -0.0067
     19 C         -6.128048   1.765912   6.761046 C.ar        1 UNL1     -0.0516
     20 C         -7.521908   1.797619   6.63412 C.ar        1 UNL1     -0.0198
     21 C         -8.310118   1.966172   7.758461 C.ar        1 UNL1     0.1169
     22 C         -7.735387   2.063732   9.019019 C.ar        1 UNL1     -0.0198
     23 C         -6.342255   2.013543   9.148331 C.ar        1 UNL1     -0.0516
     24 O         -9.662313   2.030192   7.591514 O.3        1 UNL1     -0.5068
     25 O         -3.906278   -1.33239   9.518058 O.2        1 UNL1     -0.2917
     26 O         -3.571219   -3.073028   7.486693 O.3        1 UNL1     -0.5058
     27 O         -0.064982   0.679876   2.466471 O.3        1 UNL1     -0.3648
     28 O         1.089681   -1.738098   0.049378 O.3        1 UNL1     -0.3841
     29 O         -2.368319   -0.793782   0.08615 O.3        1 UNL1     -0.3863
     30 O         -0.730771   -3.844733   1.31507 O.3        1 UNL1     -0.3829
     31 H         1.414908   -0.623997   2.170112 H        1 UNL1     0.0937
     32 H         -0.0   0.0   0.0 H        1 UNL1     0.0671
     33 H         -1.174887   -2.276987   -0.59176 H        1 UNL1     0.0649
     34 H         -2.63128   -3.070535   1.339921 H        1 UNL1     0.0683
     35 H         -1.520992   -2.964975   3.524038 H        1 UNL1     0.1085
     36 H         -2.941813   -3.169068   5.016483 H        1 UNL1     0.0691
     37 H         -2.703056   1.103698   4.453757 H        1 UNL1     0.0691
     38 H         -2.353328   1.123721   9.316874 H        1 UNL1     0.0385
     39 H         -3.920123   1.105686   10.149563 H        1 UNL1     0.0385
     40 H         -3.722156   2.93237   8.419423 H        1 UNL1     0.0789
     41 H         -5.531112   1.641711   5.862218 H        1 UNL1     0.0623
     42 H         -7.983536   1.707969   5.653878 H        1 UNL1     0.0654
     43 H         -8.343862   2.180901   9.907804 H        1 UNL1     0.0654
     44 H         -5.927705   2.082231   10.149468 H        1 UNL1     0.0623
     45 H         -9.865613   2.791676   7.02448 H        1 UNL1     0.2921
     46 H         -2.968003   -3.076889   8.246644 H        1 UNL1     0.2922
     47 H         0.349468   1.342016   1.895803 H        1 UNL1     0.2126
     48 H         1.902883   -1.201607   0.117295 H        1 UNL1     0.2101
     49 H         -2.245079   -0.362975   -0.77467 H        1 UNL1     0.2100
     50 H         -0.953883   -4.29972   0.476667 H        1 UNL1     0.2102
@<TRIPOS>BOND
     1     1     2    1
     2     1     6    1
     3     2     3    1
     4     3     4    1
     5     3    29    1
     6     3    33    1
     7     4     5    1
     8     5     6    1
     9     5     7    1
    10     5    35    1
    11     7     8    1
    12     8     9   ar
    13     8    13   ar
    14     9    10   ar
    15     9    36    1
    16    10    11   ar
    17    10    26    1
    18    11    12   ar
    19    11    14    1
    20    12    13   ar
    21    12    17    1
    22    13    37    1
    23    14    15    1
    24    14    25    2
    25    15    16    1
    26    15    38    1
    27    15    39    1
    28    16    17    1
    29    16    18    1
    30    16    40    1
    31    18    19   ar
    32    18    23   ar
    33    19    20   ar
    34    19    41    1
    35    20    21   ar
    36    20    42    1
    37    21    22   ar
    38    21    24    1
    39    22    23   ar
    40    22    43    1
    41    23    44    1
    42    24    45    1
    43    26    46    1
    44    27    47    1
    45    28    48    1
    46    29    49    1
    47    30    50    1
    48     1    31    1
    49     1    27    1
    50     2    32    1
    51     2    28    1
    52     4    34    1
    53     4    30    1
