@<TRIPOS>MOLECULE
*****
 50 53 0 0 0
SMALL
GASTEIGER

@<TRIPOS>ATOM
     1 C         -0.091909   -1.961402   0.956691 C.3        1 UNL1     0.1889
     2 C         -0.688361   -0.563038   0.642425 C.3        1 UNL1     0.1342
     3 C         -1.024673   0.283454   1.879684 C.3        1 UNL1     0.1174
     4 C         -1.520247   -0.558565   3.058041 C.3        1 UNL1     0.1456
     5 C         -0.642419   -1.798456   3.307947 C.3        1 UNL1     0.2326
     6 O         -0.581825   -2.596889   2.128243 O.3        1 UNL1     -0.3076
     7 O         0.655028   -1.483361   3.845224 O.3        1 UNL1     -0.4605
     8 C         1.271108   -0.360411   3.322771 C.ar        1 UNL1     0.1310
     9 C         2.040076   0.554372   4.050207 C.ar        1 UNL1     0.0226
     10 C         2.638907   1.65475   3.425331 C.ar        1 UNL1     0.1343
     11 C         2.502827   1.854081   2.052163 C.ar        1 UNL1     0.1007
     12 C         1.703514   0.970217   1.322322 C.ar        1 UNL1     0.1389
     13 C         1.099325   -0.13465   1.951333 C.ar        1 UNL1     0.0229
     14 C         3.182457   2.952152   1.326562 C.2        1 UNL1     0.1740
     15 C         3.107107   2.885343   -0.170571 C.3        1 UNL1     0.0520
     16 C         1.706501   2.435511   -0.562885 C.3        1 UNL1     0.1322
     17 O         1.413495   1.132304   -0.01255 O.3        1 UNL1     -0.4828
     18 C         0.626546   3.489551   -0.307111 C.ar        1 UNL1     -0.0067
     19 C         1.001516   4.766052   0.159961 C.ar        1 UNL1     -0.0516
     20 C         0.035705   5.737446   0.449038 C.ar        1 UNL1     -0.0198
     21 C         -1.305696   5.442888   0.282584 C.ar        1 UNL1     0.1169
     22 C         -1.704415   4.206117   -0.20758 C.ar        1 UNL1     -0.0198
     23 C         -0.737866   3.240828   -0.514265 C.ar        1 UNL1     -0.0516
     24 O         -2.219432   6.401049   0.610326 O.3        1 UNL1     -0.5068
     25 O         3.839249   3.826829   1.885177 O.2        1 UNL1     -0.2917
     26 O         3.375345   2.51028   4.191694 O.3        1 UNL1     -0.5058
     27 O         1.324945   -1.99875   0.894119 O.3        1 UNL1     -0.3648
     28 O         -1.909889   -0.744044   -0.097718 O.3        1 UNL1     -0.3841
     29 O         0.072061   1.130958   2.227596 O.3        1 UNL1     -0.3863
     30 O         -2.872266   -0.99259   2.794684 O.3        1 UNL1     -0.3829
     31 H         -0.415128   -2.627928   0.149628 H        1 UNL1     0.0937
     32 H         0.0   0.0   0.0 H        1 UNL1     0.0671
     33 H         -1.844164   0.963456   1.60811 H        1 UNL1     0.0649
     34 H         -1.550965   0.052017   3.967243 H        1 UNL1     0.0683
     35 H         -1.204109   -2.374169   4.05423 H        1 UNL1     0.1085
     36 H         2.229805   0.424195   5.110007 H        1 UNL1     0.0691
     37 H         0.480928   -0.807434   1.361045 H        1 UNL1     0.0691
     38 H         3.861748   2.167083   -0.508428 H        1 UNL1     0.0385
     39 H         3.358536   3.866842   -0.586769 H        1 UNL1     0.0385
     40 H         1.709122   2.280085   -1.650247 H        1 UNL1     0.0789
     41 H         2.047431   5.018855   0.307623 H        1 UNL1     0.0623
     42 H         0.336865   6.714058   0.819906 H        1 UNL1     0.0654
     43 H         -2.751405   3.970101   -0.355965 H        1 UNL1     0.0654
     44 H         -1.084537   2.289077   -0.905206 H        1 UNL1     0.0623
     45 H         -2.95831   5.974477   1.073805 H        1 UNL1     0.2921
     46 H         4.236987   2.660705   3.771746 H        1 UNL1     0.2922
     47 H         1.650538   -2.860442   1.189647 H        1 UNL1     0.2126
     48 H         -2.547948   -0.092647   0.25199 H        1 UNL1     0.2101
     49 H         0.587266   0.726692   2.943786 H        1 UNL1     0.2100
     50 H         -2.834005   -1.712614   2.131499 H        1 UNL1     0.2102
@<TRIPOS>BOND
     1     1     2    1
     2     1     6    1
     3     2     3    1
     4     3     4    1
     5     3    29    1
     6     3    33    1
     7     4     5    1
     8     5     6    1
     9     5     7    1
    10     5    35    1
    11     7     8    1
    12     8     9   ar
    13     8    13   ar
    14     9    10   ar
    15     9    36    1
    16    10    11   ar
    17    10    26    1
    18    11    12   ar
    19    11    14    1
    20    12    13   ar
    21    12    17    1
    22    13    37    1
    23    14    15    1
    24    14    25    2
    25    15    16    1
    26    15    38    1
    27    15    39    1
    28    16    17    1
    29    16    18    1
    30    16    40    1
    31    18    19   ar
    32    18    23   ar
    33    19    20   ar
    34    19    41    1
    35    20    21   ar
    36    20    42    1
    37    21    22   ar
    38    21    24    1
    39    22    23   ar
    40    22    43    1
    41    23    44    1
    42    24    45    1
    43    26    46    1
    44    27    47    1
    45    28    48    1
    46    29    49    1
    47    30    50    1
    48     1    31    1
    49     1    27    1
    50     2    32    1
    51     2    28    1
    52     4    34    1
    53     4    30    1
