@<TRIPOS>MOLECULE
*****
 50 53 0 0 0
SMALL
GASTEIGER

@<TRIPOS>ATOM
     1 C         -0.554929   -1.846827   -1.025713 C.3        1 UNL1     0.1889
     2 C         -0.816444   -0.732431   0.022939 C.3        1 UNL1     0.1342
     3 C         -0.997035   -1.236597   1.462963 C.3        1 UNL1     0.1174
     4 C         -1.704769   -2.592085   1.532848 C.3        1 UNL1     0.1456
     5 C         -1.131835   -3.609487   0.529353 C.3        1 UNL1     0.2326
     6 O         -1.211201   -3.084555   -0.793907 O.3        1 UNL1     -0.3076
     7 O         0.185007   -4.076204   0.874927 O.3        1 UNL1     -0.4605
     8 C         0.775738   -4.945068   -0.024874 C.ar        1 UNL1     0.1310
     9 C         0.217129   -5.357017   -1.239598 C.ar        1 UNL1     0.0226
     10 C         0.903416   -6.229181   -2.092969 C.ar        1 UNL1     0.1343
     11 C         2.176426   -6.69222   -1.763 C.ar        1 UNL1     0.1007
     12 C         2.727344   -6.320429   -0.533754 C.ar        1 UNL1     0.1389
     13 C         2.035965   -5.445565   0.325338 C.ar        1 UNL1     0.0229
     14 C         2.981045   -7.547992   -2.66544 C.2        1 UNL1     0.1740
     15 C         4.406876   -7.766856   -2.252338 C.3        1 UNL1     0.0520
     16 C         4.44637   -7.964257   -0.743222 C.3        1 UNL1     0.1322
     17 O         3.925518   -6.802612   -0.060315 O.3        1 UNL1     -0.4828
     18 C         3.847091   -9.29426   -0.279884 C.ar        1 UNL1     -0.0067
     19 C         4.256278   -10.492071   -0.901196 C.ar        1 UNL1     -0.0516
     20 C         3.693484   -11.72029   -0.534177 C.ar        1 UNL1     -0.0198
     21 C         2.71756   -11.763054   0.4454 C.ar        1 UNL1     0.1169
     22 C         2.317822   -10.604615   1.098904 C.ar        1 UNL1     -0.0198
     23 C         2.893711   -9.378586   0.744982 C.ar        1 UNL1     -0.0516
     24 O         2.165292   -12.972487   0.749824 O.3        1 UNL1     -0.5068
     25 O         2.558136   -7.995033   -3.728354 O.2        1 UNL1     -0.2917
     26 O         0.302695   -6.593392   -3.262614 O.3        1 UNL1     -0.5058
     27 O         0.819761   -2.030779   -1.324335 O.3        1 UNL1     -0.3648
     28 O         -2.023011   -0.036876   -0.341898 O.3        1 UNL1     -0.3841
     29 O         0.248214   -1.225645   2.163938 O.3        1 UNL1     -0.3863
     30 O         -3.110034   -2.407634   1.255544 O.3        1 UNL1     -0.3829
     31 H         -0.991284   -1.498196   -1.968119 H        1 UNL1     0.0937
     32 H         0.0   0.0   0.0 H        1 UNL1     0.0671
     33 H         -1.636366   -0.51659   1.992649 H        1 UNL1     0.0649
     34 H         -1.629081   -3.001689   2.546207 H        1 UNL1     0.0683
     35 H         -1.831003   -4.453564   0.580111 H        1 UNL1     0.1085
     36 H         -0.744686   -4.988466   -1.579012 H        1 UNL1     0.0691
     37 H         2.486144   -5.172219   1.277239 H        1 UNL1     0.0691
     38 H         4.977616   -6.880689   -2.549812 H        1 UNL1     0.0385
     39 H         4.808882   -8.630171   -2.793501 H        1 UNL1     0.0385
     40 H         5.504049   -8.004106   -0.449545 H        1 UNL1     0.0789
     41 H         5.014026   -10.484031   -1.679273 H        1 UNL1     0.0623
     42 H         4.008855   -12.635539   -1.029023 H        1 UNL1     0.0654
     43 H         1.565188   -10.628668   1.877925 H        1 UNL1     0.0654
     44 H         2.565238   -8.494964   1.283649 H        1 UNL1     0.0623
     45 H         2.607337   -13.654065   0.218067 H        1 UNL1     0.2921
     46 H         0.658714   -7.446557   -3.557185 H        1 UNL1     0.2922
     47 H         1.227733   -1.185247   -1.557777 H        1 UNL1     0.2126
     48 H         -1.808115   0.503168   -1.126693 H        1 UNL1     0.2101
     49 H         0.329116   -2.026861   2.705511 H        1 UNL1     0.2100
     50 H         -3.498596   -1.895691   1.9949 H        1 UNL1     0.2102
@<TRIPOS>BOND
     1     1     2    1
     2     1     6    1
     3     2     3    1
     4     3     4    1
     5     3    29    1
     6     3    33    1
     7     4     5    1
     8     5     6    1
     9     5     7    1
    10     5    35    1
    11     7     8    1
    12     8     9   ar
    13     8    13   ar
    14     9    10   ar
    15     9    36    1
    16    10    11   ar
    17    10    26    1
    18    11    12   ar
    19    11    14    1
    20    12    13   ar
    21    12    17    1
    22    13    37    1
    23    14    15    1
    24    14    25    2
    25    15    16    1
    26    15    38    1
    27    15    39    1
    28    16    17    1
    29    16    18    1
    30    16    40    1
    31    18    19   ar
    32    18    23   ar
    33    19    20   ar
    34    19    41    1
    35    20    21   ar
    36    20    42    1
    37    21    22   ar
    38    21    24    1
    39    22    23   ar
    40    22    43    1
    41    23    44    1
    42    24    45    1
    43    26    46    1
    44    27    47    1
    45    28    48    1
    46    29    49    1
    47    30    50    1
    48     1    31    1
    49     1    27    1
    50     2    32    1
    51     2    28    1
    52     4    34    1
    53     4    30    1
