@<TRIPOS>MOLECULE
*****
 50 53 0 0 0
SMALL
GASTEIGER

@<TRIPOS>ATOM
     1 C         -0.563803   1.10002   1.800802 C.3        1 UNL1     0.1889
     2 C         0.27867   0.026468   1.060756 C.3        1 UNL1     0.1342
     3 C         0.166702   -1.390573   1.643785 C.3        1 UNL1     0.1174
     4 C         0.012153   -1.39526   3.166681 C.3        1 UNL1     0.1456
     5 C         -1.036447   -0.380007   3.656642 C.3        1 UNL1     0.2326
     6 O         -0.694833   0.928246   3.204269 O.3        1 UNL1     -0.3076
     7 O         -2.389121   -0.753837   3.337513 O.3        1 UNL1     -0.4605
     8 C         -3.35728   -0.356864   4.242283 C.ar        1 UNL1     0.1310
     9 C         -3.739177   -1.06837   5.384743 C.ar        1 UNL1     0.0226
     10 C         -4.72096   -0.573182   6.251226 C.ar        1 UNL1     0.1343
     11 C         -5.328314   0.658142   6.008732 C.ar        1 UNL1     0.1007
     12 C         -4.984738   1.358442   4.849284 C.ar        1 UNL1     0.1389
     13 C         -3.999433   0.859064   3.976802 C.ar        1 UNL1     0.0229
     14 C         -6.310504   1.267894   6.93483 C.2        1 UNL1     0.1740
     15 C         -6.692019   2.687571   6.633974 C.3        1 UNL1     0.0520
     16 C         -6.838293   2.83792   5.12601 C.3        1 UNL1     0.1322
     17 O         -5.596483   2.526331   4.456765 O.3        1 UNL1     -0.4828
     18 C         -8.064737   2.124625   4.551756 C.ar        1 UNL1     -0.0067
     19 C         -8.435629   2.355592   3.211119 C.ar        1 UNL1     -0.0516
     20 C         -9.57866   1.756329   2.668598 C.ar        1 UNL1     -0.0198
     21 C         -10.361443   0.931765   3.456743 C.ar        1 UNL1     0.1169
     22 C         -10.003669   0.658539   4.770586 C.ar        1 UNL1     -0.0198
     23 C         -8.850525   1.24303   5.30788 C.ar        1 UNL1     -0.0516
     24 O         -11.487971   0.395964   2.905153 O.3        1 UNL1     -0.5068
     25 O         -6.738796   0.699854   7.936021 O.2        1 UNL1     -0.2917
     26 O         -5.048604   -1.316435   7.347497 O.3        1 UNL1     -0.5058
     27 O         -1.815738   1.359082   1.185716 O.3        1 UNL1     -0.3648
     28 O         1.665045   0.408848   1.127518 O.3        1 UNL1     -0.3841
     29 O         -0.859636   -2.131897   0.981063 O.3        1 UNL1     -0.3863
     30 O         1.283978   -1.077997   3.772894 O.3        1 UNL1     -0.3829
     31 H         -0.017299   2.044941   1.708404 H        1 UNL1     0.0937
     32 H         0.0   -0.0   0.0 H        1 UNL1     0.0671
     33 H         1.102175   -1.921115   1.417651 H        1 UNL1     0.0649
     34 H         -0.266091   -2.397379   3.511265 H        1 UNL1     0.0683
     35 H         -0.916849   -0.381706   4.747317 H        1 UNL1     0.1085
     36 H         -3.264999   -2.00449   5.658521 H        1 UNL1     0.0691
     37 H         -3.750775   1.422869   3.080261 H        1 UNL1     0.0691
     38 H         -5.896021   3.333306   7.019902 H        1 UNL1     0.0385
     39 H         -7.618001   2.930865   7.166088 H        1 UNL1     0.0385
     40 H         -7.000309   3.904859   4.921285 H        1 UNL1     0.0789
     41 H         -7.842904   3.006014   2.574504 H        1 UNL1     0.0623
     42 H         -9.860732   1.951706   1.636961 H        1 UNL1     0.0654
     43 H         -10.60123   0.002397   5.392123 H        1 UNL1     0.0654
     44 H         -8.5952   0.999149   6.33461 H        1 UNL1     0.0623
     45 H         -11.735423   0.930265   2.133139 H        1 UNL1     0.2921
     46 H         -5.205874   -0.727537   8.102399 H        1 UNL1     0.2922
     47 H         -1.763714   2.159298   0.644598 H        1 UNL1     0.2126
     48 H         2.170802   -0.40485   1.316825 H        1 UNL1     0.2101
     49 H         -0.566296   -3.045739   0.837397 H        1 UNL1     0.2100
     50 H         1.255005   -0.142548   4.062392 H        1 UNL1     0.2102
@<TRIPOS>BOND
     1     1     2    1
     2     1     6    1
     3     2     3    1
     4     3     4    1
     5     3    29    1
     6     3    33    1
     7     4     5    1
     8     5     6    1
     9     5     7    1
    10     5    35    1
    11     7     8    1
    12     8     9   ar
    13     8    13   ar
    14     9    10   ar
    15     9    36    1
    16    10    11   ar
    17    10    26    1
    18    11    12   ar
    19    11    14    1
    20    12    13   ar
    21    12    17    1
    22    13    37    1
    23    14    15    1
    24    14    25    2
    25    15    16    1
    26    15    38    1
    27    15    39    1
    28    16    17    1
    29    16    18    1
    30    16    40    1
    31    18    19   ar
    32    18    23   ar
    33    19    20   ar
    34    19    41    1
    35    20    21   ar
    36    20    42    1
    37    21    22   ar
    38    21    24    1
    39    22    23   ar
    40    22    43    1
    41    23    44    1
    42    24    45    1
    43    26    46    1
    44    27    47    1
    45    28    48    1
    46    29    49    1
    47    30    50    1
    48     1    31    1
    49     1    27    1
    50     2    32    1
    51     2    28    1
    52     4    34    1
    53     4    30    1
