@<TRIPOS>MOLECULE
*****
 50 53 0 0 0
SMALL
GASTEIGER

@<TRIPOS>ATOM
     1 C         -0.952738   -1.961359   0.127139 C.3        1 UNL1     0.1889
     2 C         -0.015215   -0.856875   0.684906 C.3        1 UNL1     0.1342
     3 C         1.42789   -1.313541   0.948289 C.3        1 UNL1     0.1174
     4 C         1.512693   -2.763421   1.431792 C.3        1 UNL1     0.1456
     5 C         0.646696   -3.718026   0.589686 C.3        1 UNL1     0.2326
     6 O         -0.709722   -3.278788   0.598009 O.3        1 UNL1     -0.3076
     7 O         1.161429   -3.94015   -0.735845 O.3        1 UNL1     -0.4605
     8 C         0.280947   -4.504235   -1.64143 C.ar        1 UNL1     0.1310
     9 C         0.567706   -5.581067   -2.487305 C.ar        1 UNL1     0.0226
     10 C         -0.399601   -6.093337   -3.360116 C.ar        1 UNL1     0.1343
     11 C         -1.68572   -5.55596   -3.391188 C.ar        1 UNL1     0.1007
     12 C         -1.971727   -4.454077   -2.580732 C.ar        1 UNL1     0.1389
     13 C         -0.998138   -3.937487   -1.705124 C.ar        1 UNL1     0.0229
     14 C         -2.770579   -6.111703   -4.232843 C.2        1 UNL1     0.1740
     15 C         -4.140593   -5.555835   -3.976676 C.3        1 UNL1     0.0520
     16 C         -4.016753   -4.055865   -3.747093 C.3        1 UNL1     0.1322
     17 O         -3.170153   -3.779385   -2.609597 O.3        1 UNL1     -0.4828
     18 C         -3.66103   -3.266618   -5.009343 C.ar        1 UNL1     -0.0067
     19 C         -3.732029   -1.858518   -4.988677 C.ar        1 UNL1     -0.0516
     20 C         -3.459309   -1.108579   -6.138972 C.ar        1 UNL1     -0.0198
     21 C         -3.122414   -1.753777   -7.315428 C.ar        1 UNL1     0.1169
     22 C         -3.011647   -3.13751   -7.358467 C.ar        1 UNL1     -0.0198
     23 C         -3.26632   -3.886717   -6.203527 C.ar        1 UNL1     -0.0516
     24 O         -2.900682   -0.992308   -8.425113 O.3        1 UNL1     -0.5068
     25 O         -2.602031   -7.024153   -5.037524 O.2        1 UNL1     -0.2917
     26 O         -0.055718   -7.143997   -4.159768 O.3        1 UNL1     -0.5058
     27 O         -1.089871   -1.926687   -1.284519 O.3        1 UNL1     -0.3648
     28 O         -0.552652   -0.391883   1.936964 O.3        1 UNL1     -0.3841
     29 O         2.255466   -1.060034   -0.188805 O.3        1 UNL1     -0.3863
     30 O         1.075201   -2.83073   2.806478 O.3        1 UNL1     -0.3829
     31 H         -1.957614   -1.737011   0.501268 H        1 UNL1     0.0937
     32 H         0.0   0.0   0.0 H        1 UNL1     0.0671
     33 H         1.836744   -0.685936   1.752447 H        1 UNL1     0.0649
     34 H         2.553548   -3.104785   1.409581 H        1 UNL1     0.0683
     35 H         0.679095   -4.663833   1.144914 H        1 UNL1     0.1085
     36 H         1.531242   -6.078498   -2.470513 H        1 UNL1     0.0691
     37 H         -1.245538   -3.078344   -1.085317 H        1 UNL1     0.0691
     38 H         -4.541881   -6.059207   -3.090611 H        1 UNL1     0.0385
     39 H         -4.788757   -5.792376   -4.827388 H        1 UNL1     0.0385
     40 H         -5.008357   -3.69147   -3.446331 H        1 UNL1     0.0789
     41 H         -4.003169   -1.328846   -4.080062 H        1 UNL1     0.0623
     42 H         -3.529046   -0.023916   -6.11342 H        1 UNL1     0.0654
     43 H         -2.733879   -3.652105   -8.270578 H        1 UNL1     0.0654
     44 H         -3.160034   -4.96517   -6.270526 H        1 UNL1     0.0623
     45 H         -2.108467   -1.328622   -8.874564 H        1 UNL1     0.2921
     46 H         0.063416   -6.83183   -5.070686 H        1 UNL1     0.2922
     47 H         -0.23114   -2.065404   -1.707836 H        1 UNL1     0.2126
     48 H         -0.862618   -1.182545   2.419154 H        1 UNL1     0.2101
     49 H         2.828484   -0.296067   -0.016182 H        1 UNL1     0.2100
     50 H         1.825384   -2.559723   3.375243 H        1 UNL1     0.2102
@<TRIPOS>BOND
     1     1     2    1
     2     1     6    1
     3     2     3    1
     4     3     4    1
     5     3    29    1
     6     3    33    1
     7     4     5    1
     8     5     6    1
     9     5     7    1
    10     5    35    1
    11     7     8    1
    12     8     9   ar
    13     8    13   ar
    14     9    10   ar
    15     9    36    1
    16    10    11   ar
    17    10    26    1
    18    11    12   ar
    19    11    14    1
    20    12    13   ar
    21    12    17    1
    22    13    37    1
    23    14    15    1
    24    14    25    2
    25    15    16    1
    26    15    38    1
    27    15    39    1
    28    16    17    1
    29    16    18    1
    30    16    40    1
    31    18    19   ar
    32    18    23   ar
    33    19    20   ar
    34    19    41    1
    35    20    21   ar
    36    20    42    1
    37    21    22   ar
    38    21    24    1
    39    22    23   ar
    40    22    43    1
    41    23    44    1
    42    24    45    1
    43    26    46    1
    44    27    47    1
    45    28    48    1
    46    29    49    1
    47    30    50    1
    48     1    31    1
    49     1    27    1
    50     2    32    1
    51     2    28    1
    52     4    34    1
    53     4    30    1
