@<TRIPOS>MOLECULE
*****
 50 53 0 0 0
SMALL
GASTEIGER

@<TRIPOS>ATOM
     1 C         -1.478315   -1.420075   0.754172 C.3        1 UNL1     0.1889
     2 C         -0.262106   -0.476024   0.953028 C.3        1 UNL1     0.1342
     3 C         0.987697   -1.154219   1.534844 C.3        1 UNL1     0.1174
     4 C         0.650272   -2.257756   2.540561 C.3        1 UNL1     0.1456
     5 C         -0.4541   -3.202258   2.031993 C.3        1 UNL1     0.2326
     6 O         -1.626029   -2.454169   1.716059 O.3        1 UNL1     -0.3076
     7 O         -0.024931   -4.061176   0.959894 O.3        1 UNL1     -0.4605
     8 C         -1.030402   -4.685103   0.243467 C.ar        1 UNL1     0.1310
     9 C         -1.06549   -6.043663   -0.088775 C.ar        1 UNL1     0.0226
     10 C         -2.139212   -6.586109   -0.804859 C.ar        1 UNL1     0.1343
     11 C         -3.216363   -5.787065   -1.185801 C.ar        1 UNL1     0.1007
     12 C         -3.173345   -4.420805   -0.895518 C.ar        1 UNL1     0.1389
     13 C         -2.092365   -3.875107   -0.177795 C.ar        1 UNL1     0.0229
     14 C         -4.415176   -6.324275   -1.870204 C.2        1 UNL1     0.1740
     15 C         -5.567377   -5.372442   -2.004348 C.3        1 UNL1     0.0520
     16 C         -5.017271   -3.995974   -2.351731 C.3        1 UNL1     0.1322
     17 O         -4.127006   -3.523391   -1.31676 O.3        1 UNL1     -0.4828
     18 C         -4.449438   -3.899259   -3.769806 C.ar        1 UNL1     -0.0067
     19 C         -5.021142   -2.990895   -4.684268 C.ar        1 UNL1     -0.0516
     20 C         -4.556981   -2.910964   -6.002649 C.ar        1 UNL1     -0.0198
     21 C         -3.528943   -3.737295   -6.419953 C.ar        1 UNL1     0.1169
     22 C         -2.923368   -4.618405   -5.53352 C.ar        1 UNL1     -0.0198
     23 C         -3.375   -4.685494   -4.210046 C.ar        1 UNL1     -0.0516
     24 O         -3.128795   -3.657905   -7.721482 O.3        1 UNL1     -0.5068
     25 O         -4.516191   -7.490831   -2.240918 O.2        1 UNL1     -0.2917
     26 O         -2.112066   -7.918338   -1.098138 O.3        1 UNL1     -0.5058
     27 O         -1.599127   -1.915201   -0.569853 O.3        1 UNL1     -0.3648
     28 O         -0.642894   0.572987   1.862579 O.3        1 UNL1     -0.3841
     29 O         1.853607   -1.603142   0.49043 O.3        1 UNL1     -0.3863
     30 O         0.211504   -1.653946   3.776921 O.3        1 UNL1     -0.3829
     31 H         -2.375804   -0.808172   0.896178 H        1 UNL1     0.0937
     32 H         0.0   0.0   0.0 H        1 UNL1     0.0671
     33 H         1.560016   -0.391071   2.080533 H        1 UNL1     0.0649
     34 H         1.548318   -2.841893   2.770121 H        1 UNL1     0.0683
     35 H         -0.696242   -3.820614   2.905424 H        1 UNL1     0.1085
     36 H         -0.285793   -6.728189   0.226846 H        1 UNL1     0.0691
     37 H         -2.082189   -2.808213   0.034637 H        1 UNL1     0.0691
     38 H         -6.096579   -5.355836   -1.045601 H        1 UNL1     0.0385
     39 H         -6.256127   -5.748067   -2.768749 H        1 UNL1     0.0385
     40 H         -5.862147   -3.294427   -2.328547 H        1 UNL1     0.0789
     41 H         -5.835362   -2.337901   -4.383775 H        1 UNL1     0.0623
     42 H         -5.014   -2.214841   -6.701619 H        1 UNL1     0.0654
     43 H         -2.10755   -5.259405   -5.845722 H        1 UNL1     0.0654
     44 H         -2.871828   -5.377717   -3.541847 H        1 UNL1     0.0623
     45 H         -2.158156   -3.663655   -7.744819 H        1 UNL1     0.2921
     46 H         -1.908095   -8.038367   -2.039095 H        1 UNL1     0.2922
     47 H         -0.81683   -2.432789   -0.806441 H        1 UNL1     0.2126
     48 H         -1.611523   0.67135   1.78632 H        1 UNL1     0.2101
     49 H         1.974531   -0.897121   -0.164327 H        1 UNL1     0.2100
     50 H         -0.763822   -1.734018   3.822086 H        1 UNL1     0.2102
@<TRIPOS>BOND
     1     1     2    1
     2     1     6    1
     3     2     3    1
     4     3     4    1
     5     3    29    1
     6     3    33    1
     7     4     5    1
     8     5     6    1
     9     5     7    1
    10     5    35    1
    11     7     8    1
    12     8     9   ar
    13     8    13   ar
    14     9    10   ar
    15     9    36    1
    16    10    11   ar
    17    10    26    1
    18    11    12   ar
    19    11    14    1
    20    12    13   ar
    21    12    17    1
    22    13    37    1
    23    14    15    1
    24    14    25    2
    25    15    16    1
    26    15    38    1
    27    15    39    1
    28    16    17    1
    29    16    18    1
    30    16    40    1
    31    18    19   ar
    32    18    23   ar
    33    19    20   ar
    34    19    41    1
    35    20    21   ar
    36    20    42    1
    37    21    22   ar
    38    21    24    1
    39    22    23   ar
    40    22    43    1
    41    23    44    1
    42    24    45    1
    43    26    46    1
    44    27    47    1
    45    28    48    1
    46    29    49    1
    47    30    50    1
    48     1    31    1
    49     1    27    1
    50     2    32    1
    51     2    28    1
    52     4    34    1
    53     4    30    1
