@<TRIPOS>MOLECULE
*****
 50 53 0 0 0
SMALL
GASTEIGER

@<TRIPOS>ATOM
     1 C         -0.358159   -1.361642   1.669868 C.3        1 UNL1     0.1889
     2 C         -0.443241   -0.989879   0.165044 C.3        1 UNL1     0.1342
     3 C         -1.863622   -1.00684   -0.420358 C.3        1 UNL1     0.1174
     4 C         -2.744893   -2.098452   0.191901 C.3        1 UNL1     0.1456
     5 C         -2.648302   -2.142604   1.727832 C.3        1 UNL1     0.2326
     6 O         -1.291688   -2.330334   2.124349 O.3        1 UNL1     -0.3076
     7 O         -3.276677   -1.020688   2.374184 O.3        1 UNL1     -0.4605
     8 C         -3.825951   -1.268076   3.619425 C.ar        1 UNL1     0.1310
     9 C         -5.078565   -0.823001   4.055508 C.ar        1 UNL1     0.0226
     10 C         -5.555262   -1.141123   5.332794 C.ar        1 UNL1     0.1343
     11 C         -4.800258   -1.932826   6.197096 C.ar        1 UNL1     0.1007
     12 C         -3.530398   -2.348875   5.788265 C.ar        1 UNL1     0.1389
     13 C         -3.050194   -2.026657   4.504906 C.ar        1 UNL1     0.0229
     14 C         -5.290668   -2.368949   7.525044 C.2        1 UNL1     0.1740
     15 C         -4.447296   -3.394551   8.223911 C.3        1 UNL1     0.0520
     16 C         -2.982063   -3.042995   8.006062 C.3        1 UNL1     0.1322
     17 O         -2.659282   -3.040169   6.597917 O.3        1 UNL1     -0.4828
     18 C         -2.529372   -1.792152   8.763153 C.ar        1 UNL1     -0.0067
     19 C         -1.808388   -0.791762   8.079329 C.ar        1 UNL1     -0.0516
     20 C         -1.338624   0.342301   8.75252 C.ar        1 UNL1     -0.0198
     21 C         -1.576407   0.48384   10.107973 C.ar        1 UNL1     0.1169
     22 C         -2.312187   -0.46801   10.801837 C.ar        1 UNL1     -0.0198
     23 C         -2.797941   -1.593184   10.125019 C.ar        1 UNL1     -0.0516
     24 O         -1.070899   1.583093   10.73766 O.3        1 UNL1     -0.5068
     25 O         -6.354729   -1.992997   8.009729 O.2        1 UNL1     -0.2917
     26 O         -6.784668   -0.675081   5.697419 O.3        1 UNL1     -0.5058
     27 O         -0.313569   -0.23368   2.529229 O.3        1 UNL1     -0.3648
     28 O         0.340116   -1.937576   -0.583907 O.3        1 UNL1     -0.3841
     29 O         -2.458049   0.290589   -0.34641 O.3        1 UNL1     -0.3863
     30 O         -2.34431   -3.381884   -0.335381 O.3        1 UNL1     -0.3829
     31 H         0.610804   -1.851109   1.816876 H        1 UNL1     0.0937
     32 H         0.0   0.0   0.0 H        1 UNL1     0.0671
     33 H         -1.781442   -1.229391   -1.493408 H        1 UNL1     0.0649
     34 H         -3.789377   -1.943641   -0.100483 H        1 UNL1     0.0683
     35 H         -3.189826   -3.057014   2.000753 H        1 UNL1     0.1085
     36 H         -5.736794   -0.251226   3.410583 H        1 UNL1     0.0691
     37 H         -2.05777   -2.361713   4.211097 H        1 UNL1     0.0691
     38 H         -4.687603   -4.371556   7.791198 H        1 UNL1     0.0385
     39 H         -4.714534   -3.415756   9.285943 H        1 UNL1     0.0385
     40 H         -2.386221   -3.866366   8.422659 H        1 UNL1     0.0789
     41 H         -1.600781   -0.883843   7.017222 H        1 UNL1     0.0623
     42 H         -0.773619   1.100967   8.216602 H        1 UNL1     0.0654
     43 H         -2.517101   -0.35973   11.86023 H        1 UNL1     0.0654
     44 H         -3.37805   -2.311579   10.696182 H        1 UNL1     0.0623
     45 H         -1.810057   2.088545   11.113001 H        1 UNL1     0.2921
     46 H         -7.350515   -1.420649   5.953068 H        1 UNL1     0.2922
     47 H         0.424173   0.34314   2.286587 H        1 UNL1     0.2126
     48 H         1.259969   -1.852485   -0.267108 H        1 UNL1     0.2101
     49 H         -2.011779   0.893624   -0.962028 H        1 UNL1     0.2100
     50 H         -2.542442   -3.388847   -1.29476 H        1 UNL1     0.2102
@<TRIPOS>BOND
     1     1     2    1
     2     1     6    1
     3     2     3    1
     4     3     4    1
     5     3    29    1
     6     3    33    1
     7     4     5    1
     8     5     6    1
     9     5     7    1
    10     5    35    1
    11     7     8    1
    12     8     9   ar
    13     8    13   ar
    14     9    10   ar
    15     9    36    1
    16    10    11   ar
    17    10    26    1
    18    11    12   ar
    19    11    14    1
    20    12    13   ar
    21    12    17    1
    22    13    37    1
    23    14    15    1
    24    14    25    2
    25    15    16    1
    26    15    38    1
    27    15    39    1
    28    16    17    1
    29    16    18    1
    30    16    40    1
    31    18    19   ar
    32    18    23   ar
    33    19    20   ar
    34    19    41    1
    35    20    21   ar
    36    20    42    1
    37    21    22   ar
    38    21    24    1
    39    22    23   ar
    40    22    43    1
    41    23    44    1
    42    24    45    1
    43    26    46    1
    44    27    47    1
    45    28    48    1
    46    29    49    1
    47    30    50    1
    48     1    31    1
    49     1    27    1
    50     2    32    1
    51     2    28    1
    52     4    34    1
    53     4    30    1
