@<TRIPOS>MOLECULE
*****
 50 53 0 0 0
SMALL
GASTEIGER

@<TRIPOS>ATOM
     1 C         0.582378   -1.523138   1.453165 C.3        1 UNL1     0.1889
     2 C         -0.488937   -0.725096   0.662373 C.3        1 UNL1     0.1342
     3 C         -1.516966   0.008878   1.53696 C.3        1 UNL1     0.1174
     4 C         -1.863193   -0.757668   2.815886 C.3        1 UNL1     0.1456
     5 C         -0.613704   -1.286003   3.543899 C.3        1 UNL1     0.2326
     6 O         0.145137   -2.11577   2.66725 O.3        1 UNL1     -0.3076
     7 O         0.170563   -0.249675   4.16218 O.3        1 UNL1     -0.4605
     8 C         1.454029   -0.60328   4.537957 C.ar        1 UNL1     0.1310
     9 C         2.03882   -0.331374   5.779482 C.ar        1 UNL1     0.0226
     10 C         3.3433   -0.747153   6.071652 C.ar        1 UNL1     0.1343
     11 C         4.086834   -1.466448   5.13698 C.ar        1 UNL1     0.1007
     12 C         3.528624   -1.708305   3.878929 C.ar        1 UNL1     0.1389
     13 C         2.217929   -1.287833   3.584457 C.ar        1 UNL1     0.0229
     14 C         5.437728   -2.002588   5.422975 C.2        1 UNL1     0.1740
     15 C         5.997029   -2.937559   4.391199 C.3        1 UNL1     0.0520
     16 C         5.64289   -2.400048   3.01148 C.3        1 UNL1     0.1322
     17 O         4.210244   -2.31185   2.84772 O.3        1 UNL1     -0.4828
     18 C         6.404301   -1.127722   2.63179 C.ar        1 UNL1     -0.0067
     19 C         7.374392   -1.18012   1.609835 C.ar        1 UNL1     -0.0516
     20 C         8.12205   -0.046233   1.270319 C.ar        1 UNL1     -0.0198
     21 C         7.914684   1.141428   1.948764 C.ar        1 UNL1     0.1169
     22 C         6.943185   1.23304   2.937013 C.ar        1 UNL1     -0.0198
     23 C         6.182538   0.104107   3.264097 C.ar        1 UNL1     -0.0516
     24 O         8.687998   2.214721   1.616459 O.3        1 UNL1     -0.5068
     25 O         6.047892   -1.777398   6.464836 O.2        1 UNL1     -0.2917
     26 O         3.855619   -0.449272   7.300628 O.3        1 UNL1     -0.5058
     27 O         1.801195   -0.817394   1.624037 O.3        1 UNL1     -0.3648
     28 O         -1.216309   -1.643471   -0.17442 O.3        1 UNL1     -0.3841
     29 O         -1.09901   1.351348   1.792339 O.3        1 UNL1     -0.3863
     30 O         -2.713609   -1.876223   2.482242 O.3        1 UNL1     -0.3829
     31 H         0.853756   -2.383361   0.831514 H        1 UNL1     0.0937
     32 H         0.0   0.0   0.0 H        1 UNL1     0.0671
     33 H         -2.446929   0.097925   0.958204 H        1 UNL1     0.0649
     34 H         -2.432426   -0.11371   3.495366 H        1 UNL1     0.0683
     35 H         -1.019946   -1.937546   4.327697 H        1 UNL1     0.1085
     36 H         1.493097   0.174756   6.568241 H        1 UNL1     0.0691
     37 H         1.806759   -1.4875   2.597256 H        1 UNL1     0.0691
     38 H         5.548023   -3.922392   4.558598 H        1 UNL1     0.0385
     39 H         7.07917   -3.025946   4.535898 H        1 UNL1     0.0385
     40 H         5.956907   -3.156089   2.279145 H        1 UNL1     0.0789
     41 H         7.56242   -2.102817   1.06861 H        1 UNL1     0.0623
     42 H         8.875511   -0.102439   0.488558 H        1 UNL1     0.0654
     43 H         6.762124   2.162078   3.464284 H        1 UNL1     0.0654
     44 H         5.424864   0.214457   4.033901 H        1 UNL1     0.0623
     45 H         8.173685   2.79372   1.030832 H        1 UNL1     0.2921
     46 H         4.076395   -1.270997   7.76693 H        1 UNL1     0.2922
     47 H         2.503392   -1.230773   1.1026 H        1 UNL1     0.2126
     48 H         -2.158141   -1.392915   -0.11193 H        1 UNL1     0.2101
     49 H         -0.130144   1.404263   1.775181 H        1 UNL1     0.2100
     50 H         -2.163074   -2.686505   2.49042 H        1 UNL1     0.2102
@<TRIPOS>BOND
     1     1     2    1
     2     1     6    1
     3     2     3    1
     4     3     4    1
     5     3    29    1
     6     3    33    1
     7     4     5    1
     8     5     6    1
     9     5     7    1
    10     5    35    1
    11     7     8    1
    12     8     9   ar
    13     8    13   ar
    14     9    10   ar
    15     9    36    1
    16    10    11   ar
    17    10    26    1
    18    11    12   ar
    19    11    14    1
    20    12    13   ar
    21    12    17    1
    22    13    37    1
    23    14    15    1
    24    14    25    2
    25    15    16    1
    26    15    38    1
    27    15    39    1
    28    16    17    1
    29    16    18    1
    30    16    40    1
    31    18    19   ar
    32    18    23   ar
    33    19    20   ar
    34    19    41    1
    35    20    21   ar
    36    20    42    1
    37    21    22   ar
    38    21    24    1
    39    22    23   ar
    40    22    43    1
    41    23    44    1
    42    24    45    1
    43    26    46    1
    44    27    47    1
    45    28    48    1
    46    29    49    1
    47    30    50    1
    48     1    31    1
    49     1    27    1
    50     2    32    1
    51     2    28    1
    52     4    34    1
    53     4    30    1
