@<TRIPOS>MOLECULE
*****
 50 53 0 0 0
SMALL
GASTEIGER

@<TRIPOS>ATOM
     1 C         -0.78635   0.494444   1.976862 C.3        1 UNL1     0.1889
     2 C         -0.899407   0.458904   0.428994 C.3        1 UNL1     0.1342
     3 C         -1.125611   1.828673   -0.229057 C.3        1 UNL1     0.1174
     4 C         -1.992643   2.759968   0.621862 C.3        1 UNL1     0.1456
     5 C         -1.558222   2.785161   2.098685 C.3        1 UNL1     0.2326
     6 O         -1.58631   1.464874   2.636198 O.3        1 UNL1     -0.3076
     7 O         -0.304717   3.458062   2.316057 O.3        1 UNL1     -0.4605
     8 C         -0.042689   3.846031   3.617729 C.ar        1 UNL1     0.1310
     9 C         1.116314   4.498956   4.050975 C.ar        1 UNL1     0.0226
     10 C         1.281432   4.867093   5.39154 C.ar        1 UNL1     0.1343
     11 C         0.280236   4.612225   6.327751 C.ar        1 UNL1     0.1007
     12 C         -0.863988   3.924187   5.915272 C.ar        1 UNL1     0.1389
     13 C         -1.028626   3.551781   4.567816 C.ar        1 UNL1     0.0229
     14 C         0.366104   5.053805   7.739058 C.2        1 UNL1     0.1740
     15 C         -0.888472   4.894578   8.546669 C.3        1 UNL1     0.0520
     16 C         -1.53255   3.564903   8.179127 C.3        1 UNL1     0.1322
     17 O         -1.862922   3.526392   6.773268 O.3        1 UNL1     -0.4828
     18 C         -0.75733   2.344809   8.682246 C.ar        1 UNL1     -0.0067
     19 C         -1.376395   1.077986   8.670847 C.ar        1 UNL1     -0.0516
     20 C         -0.712925   -0.05023   9.167736 C.ar        1 UNL1     -0.0198
     21 C         0.564179   0.076256   9.684296 C.ar        1 UNL1     0.1169
     22 C         1.21283   1.304286   9.678504 C.ar        1 UNL1     -0.0198
     23 C         0.556618   2.429229   9.164749 C.ar        1 UNL1     -0.0516
     24 O         1.164344   -1.037474   10.194009 O.3        1 UNL1     -0.5068
     25 O         1.359896   5.592091   8.219797 O.2        1 UNL1     -0.2917
     26 O         2.435805   5.500254   5.74947 O.3        1 UNL1     -0.5058
     27 O         0.552561   0.513285   2.445639 O.3        1 UNL1     -0.3648
     28 O         -2.015749   -0.377302   0.072282 O.3        1 UNL1     -0.3841
     29 O         0.118682   2.421813   -0.605955 O.3        1 UNL1     -0.3863
     30 O         -3.367645   2.324206   0.549948 O.3        1 UNL1     -0.3829
     31 H         -1.186406   -0.457888   2.341688 H        1 UNL1     0.0937
     32 H         0.0   0.0   -0.0 H        1 UNL1     0.0671
     33 H         -1.666979   1.662908   -1.17095 H        1 UNL1     0.0649
     34 H         -1.957263   3.777461   0.217069 H        1 UNL1     0.0683
     35 H         -2.354571   3.350255   2.599062 H        1 UNL1     0.1085
     36 H         1.906701   4.775136   3.361676 H        1 UNL1     0.0691
     37 H         -1.928171   3.016013   4.272411 H        1 UNL1     0.0691
     38 H         -1.548309   5.733924   8.302459 H        1 UNL1     0.0385
     39 H         -0.639658   4.953742   9.611738 H        1 UNL1     0.0385
     40 H         -2.503719   3.523303   8.690614 H        1 UNL1     0.0789
     41 H         -2.381807   0.954071   8.279128 H        1 UNL1     0.0623
     42 H         -1.205481   -1.01945   9.164368 H        1 UNL1     0.0654
     43 H         2.218612   1.411721   10.066797 H        1 UNL1     0.0654
     44 H         1.097352   3.370743   9.166263 H        1 UNL1     0.0623
     45 H         1.757887   -0.764502   10.912276 H        1 UNL1     0.2921
     46 H         2.363991   6.445426   5.542334 H        1 UNL1     0.2922
     47 H         0.928067   -0.377954   2.42224 H        1 UNL1     0.2126
     48 H         -2.021943   -0.434703   -0.902602 H        1 UNL1     0.2101
     49 H         0.847229   1.809735   -0.415239 H        1 UNL1     0.2100
     50 H         -3.687575   2.484952   -0.361928 H        1 UNL1     0.2102
@<TRIPOS>BOND
     1     1     2    1
     2     1     6    1
     3     2     3    1
     4     3     4    1
     5     3    29    1
     6     3    33    1
     7     4     5    1
     8     5     6    1
     9     5     7    1
    10     5    35    1
    11     7     8    1
    12     8     9   ar
    13     8    13   ar
    14     9    10   ar
    15     9    36    1
    16    10    11   ar
    17    10    26    1
    18    11    12   ar
    19    11    14    1
    20    12    13   ar
    21    12    17    1
    22    13    37    1
    23    14    15    1
    24    14    25    2
    25    15    16    1
    26    15    38    1
    27    15    39    1
    28    16    17    1
    29    16    18    1
    30    16    40    1
    31    18    19   ar
    32    18    23   ar
    33    19    20   ar
    34    19    41    1
    35    20    21   ar
    36    20    42    1
    37    21    22   ar
    38    21    24    1
    39    22    23   ar
    40    22    43    1
    41    23    44    1
    42    24    45    1
    43    26    46    1
    44    27    47    1
    45    28    48    1
    46    29    49    1
    47    30    50    1
    48     1    31    1
    49     1    27    1
    50     2    32    1
    51     2    28    1
    52     4    34    1
    53     4    30    1
