@<TRIPOS>MOLECULE
*****
 50 53 0 0 0
SMALL
GASTEIGER

@<TRIPOS>ATOM
     1 C         -0.935503   0.856619   1.778157 C.3        1 UNL1     0.1889
     2 C         0.313193   0.459215   0.94583 C.3        1 UNL1     0.1342
     3 C         1.287792   -0.486963   1.663723 C.3        1 UNL1     0.1174
     4 C         1.372809   -0.221157   3.168793 C.3        1 UNL1     0.1456
     5 C         -0.013494   -0.061181   3.819127 C.3        1 UNL1     0.2326
     6 O         -0.733147   0.989132   3.177403 O.3        1 UNL1     -0.3076
     7 O         -0.756235   -1.291555   3.895531 O.3        1 UNL1     -0.4605
     8 C         -2.133641   -1.167348   3.924723 C.ar        1 UNL1     0.1310
     9 C         -3.045716   -2.202764   3.693782 C.ar        1 UNL1     0.0226
     10 C         -4.426131   -1.980109   3.76293 C.ar        1 UNL1     0.1343
     11 C         -4.928162   -0.720808   4.088452 C.ar        1 UNL1     0.1007
     12 C         -4.028007   0.330612   4.280864 C.ar        1 UNL1     0.1389
     13 C         -2.640111   0.107084   4.208679 C.ar        1 UNL1     0.0229
     14 C         -6.374539   -0.449514   4.257412 C.2        1 UNL1     0.1740
     15 C         -6.720894   0.895959   4.824235 C.3        1 UNL1     0.0520
     16 C         -5.796149   1.933301   4.202363 C.3        1 UNL1     0.1322
     17 O         -4.414721   1.632512   4.499438 O.3        1 UNL1     -0.4828
     18 C         -6.08215   2.206152   2.723688 C.ar        1 UNL1     -0.0067
     19 C         -6.293708   3.53183   2.292371 C.ar        1 UNL1     -0.0516
     20 C         -6.604269   3.811577   0.956236 C.ar        1 UNL1     -0.0198
     21 C         -6.713146   2.776127   0.045294 C.ar        1 UNL1     0.1169
     22 C         -6.477544   1.463396   0.432678 C.ar        1 UNL1     -0.0198
     23 C         -6.148828   1.185126   1.764807 C.ar        1 UNL1     -0.0516
     24 O         -7.054353   3.083446   -1.239048 O.3        1 UNL1     -0.5068
     25 O         -7.249329   -1.281794   4.032606 O.2        1 UNL1     -0.2917
     26 O         -5.262194   -3.031986   3.525995 O.3        1 UNL1     -0.5058
     27 O         -2.081948   0.073385   1.48662 O.3        1 UNL1     -0.3648
     28 O         1.042214   1.656399   0.617219 O.3        1 UNL1     -0.3841
     29 O         0.98811   -1.850493   1.358587 O.3        1 UNL1     -0.3863
     30 O         2.133365   0.985614   3.394515 O.3        1 UNL1     -0.3829
     31 H         -1.212767   1.868359   1.462586 H        1 UNL1     0.0937
     32 H         0.0   -0.0   0.0 H        1 UNL1     0.0671
     33 H         2.291393   -0.309734   1.252513 H        1 UNL1     0.0649
     34 H         1.912044   -1.037005   3.662775 H        1 UNL1     0.0683
     35 H         0.209908   0.281054   4.837384 H        1 UNL1     0.1085
     36 H         -2.718176   -3.216607   3.491395 H        1 UNL1     0.0691
     37 H         -1.96034   0.942594   4.361408 H        1 UNL1     0.0691
     38 H         -6.582719   0.843689   5.909455 H        1 UNL1     0.0385
     39 H         -7.776436   1.109017   4.623693 H        1 UNL1     0.0385
     40 H         -5.986294   2.885611   4.715657 H        1 UNL1     0.0789
     41 H         -6.22299   4.36135   2.9899 H        1 UNL1     0.0623
     42 H         -6.77687   4.836877   0.63846 H        1 UNL1     0.0654
     43 H         -6.545379   0.646404   -0.275723 H        1 UNL1     0.0654
     44 H         -5.960949   0.149209   2.030181 H        1 UNL1     0.0623
     45 H         -6.296863   2.885631   -1.813326 H        1 UNL1     0.2921
     46 H         -6.179543   -2.757949   3.683435 H        1 UNL1     0.2922
     47 H         -2.82696   0.352561   2.036963 H        1 UNL1     0.2126
     48 H         0.409454   2.257947   0.179626 H        1 UNL1     0.2101
     49 H         0.200915   -2.133446   1.85058 H        1 UNL1     0.2100
     50 H         1.592571   1.583077   3.951554 H        1 UNL1     0.2102
@<TRIPOS>BOND
     1     1     2    1
     2     1     6    1
     3     2     3    1
     4     3     4    1
     5     3    29    1
     6     3    33    1
     7     4     5    1
     8     5     6    1
     9     5     7    1
    10     5    35    1
    11     7     8    1
    12     8     9   ar
    13     8    13   ar
    14     9    10   ar
    15     9    36    1
    16    10    11   ar
    17    10    26    1
    18    11    12   ar
    19    11    14    1
    20    12    13   ar
    21    12    17    1
    22    13    37    1
    23    14    15    1
    24    14    25    2
    25    15    16    1
    26    15    38    1
    27    15    39    1
    28    16    17    1
    29    16    18    1
    30    16    40    1
    31    18    19   ar
    32    18    23   ar
    33    19    20   ar
    34    19    41    1
    35    20    21   ar
    36    20    42    1
    37    21    22   ar
    38    21    24    1
    39    22    23   ar
    40    22    43    1
    41    23    44    1
    42    24    45    1
    43    26    46    1
    44    27    47    1
    45    28    48    1
    46    29    49    1
    47    30    50    1
    48     1    31    1
    49     1    27    1
    50     2    32    1
    51     2    28    1
    52     4    34    1
    53     4    30    1
