@<TRIPOS>MOLECULE
*****
 50 53 0 0 0
SMALL
GASTEIGER

@<TRIPOS>ATOM
     1 C         -0.413748   1.956516   0.878443 C.3        1 UNL1     0.1889
     2 C         -0.181084   1.026388   -0.342487 C.3        1 UNL1     0.1342
     3 C         0.968599   1.456532   -1.266429 C.3        1 UNL1     0.1174
     4 C         1.107165   2.977247   -1.372935 C.3        1 UNL1     0.1456
     5 C         1.049049   3.672759   -0.00062 C.3        1 UNL1     0.2326
     6 O         -0.167954   3.338332   0.662652 O.3        1 UNL1     -0.3076
     7 O         2.216504   3.442108   0.808807 O.3        1 UNL1     -0.4605
     8 C         3.35375   3.039824   0.131779 C.ar        1 UNL1     0.1310
     9 C         4.648329   3.514428   0.368666 C.ar        1 UNL1     0.0226
     10 C         5.741159   3.030947   -0.360629 C.ar        1 UNL1     0.1343
     11 C         5.569039   2.042856   -1.329077 C.ar        1 UNL1     0.1007
     12 C         4.275496   1.590694   -1.603084 C.ar        1 UNL1     0.1389
     13 C         3.17648   2.078902   -0.871478 C.ar        1 UNL1     0.0229
     14 C         6.698961   1.436248   -2.07033 C.2        1 UNL1     0.1740
     15 C         6.358047   0.238268   -2.907091 C.3        1 UNL1     0.0520
     16 C         5.019675   0.490894   -3.587457 C.3        1 UNL1     0.1322
     17 O         3.978144   0.700106   -2.608421 O.3        1 UNL1     -0.4828
     18 C         5.078626   1.55319   -4.68781 C.ar        1 UNL1     -0.0067
     19 C         4.462436   2.803789   -4.4768 C.ar        1 UNL1     -0.0516
     20 C         4.456832   3.780202   -5.480069 C.ar        1 UNL1     -0.0198
     21 C         5.056247   3.516119   -6.698589 C.ar        1 UNL1     0.1169
     22 C         5.70021   2.30653   -6.924518 C.ar        1 UNL1     -0.0198
     23 C         5.721983   1.336885   -5.914878 C.ar        1 UNL1     -0.0516
     24 O         4.997941   4.47689   -7.664984 O.3        1 UNL1     -0.5068
     25 O         7.861237   1.81827   -1.962347 O.2        1 UNL1     -0.2917
     26 O         6.977552   3.536017   -0.081662 O.3        1 UNL1     -0.5058
     27 O         0.20593   1.493821   2.067855 O.3        1 UNL1     -0.3648
     28 O         -1.382678   1.005138   -1.135221 O.3        1 UNL1     -0.3841
     29 O         2.188672   0.814626   -0.89025 O.3        1 UNL1     -0.3863
     30 O         0.041781   3.493233   -2.200224 O.3        1 UNL1     -0.3829
     31 H         -1.485791   1.918778   1.100654 H        1 UNL1     0.0937
     32 H         0.0   0.0   0.0 H        1 UNL1     0.0671
     33 H         0.743538   1.086409   -2.276417 H        1 UNL1     0.0649
     34 H         2.050294   3.233055   -1.868384 H        1 UNL1     0.0683
     35 H         0.994864   4.740509   -0.247303 H        1 UNL1     0.1085
     36 H         4.855749   4.241433   1.146202 H        1 UNL1     0.0691
     37 H         2.179451   1.711514   -1.104829 H        1 UNL1     0.0691
     38 H         6.304196   -0.627894   -2.238966 H        1 UNL1     0.0385
     39 H         7.16313   0.063842   -3.62903 H        1 UNL1     0.0385
     40 H         4.734752   -0.439624   -4.096845 H        1 UNL1     0.0789
     41 H         3.977164   3.032117   -3.532327 H        1 UNL1     0.0623
     42 H         3.968031   4.73622   -5.30944 H        1 UNL1     0.0654
     43 H         6.1858   2.095021   -7.869704 H        1 UNL1     0.0654
     44 H         6.243296   0.40729   -6.122073 H        1 UNL1     0.0623
     45 H         4.087927   4.519242   -8.000836 H        1 UNL1     0.2921
     46 H         7.655761   2.976018   -0.491351 H        1 UNL1     0.2922
     47 H         -0.194986   1.916122   2.840375 H        1 UNL1     0.2126
     48 H         -1.195776   1.525211   -1.940406 H        1 UNL1     0.2101
     49 H         2.669648   1.36716   -0.253726 H        1 UNL1     0.2100
     50 H         -0.303884   2.754129   -2.742398 H        1 UNL1     0.2102
@<TRIPOS>BOND
     1     1     2    1
     2     1     6    1
     3     2     3    1
     4     3     4    1
     5     3    29    1
     6     3    33    1
     7     4     5    1
     8     5     6    1
     9     5     7    1
    10     5    35    1
    11     7     8    1
    12     8     9   ar
    13     8    13   ar
    14     9    10   ar
    15     9    36    1
    16    10    11   ar
    17    10    26    1
    18    11    12   ar
    19    11    14    1
    20    12    13   ar
    21    12    17    1
    22    13    37    1
    23    14    15    1
    24    14    25    2
    25    15    16    1
    26    15    38    1
    27    15    39    1
    28    16    17    1
    29    16    18    1
    30    16    40    1
    31    18    19   ar
    32    18    23   ar
    33    19    20   ar
    34    19    41    1
    35    20    21   ar
    36    20    42    1
    37    21    22   ar
    38    21    24    1
    39    22    23   ar
    40    22    43    1
    41    23    44    1
    42    24    45    1
    43    26    46    1
    44    27    47    1
    45    28    48    1
    46    29    49    1
    47    30    50    1
    48     1    31    1
    49     1    27    1
    50     2    32    1
    51     2    28    1
    52     4    34    1
    53     4    30    1
