@<TRIPOS>MOLECULE
*****
 50 53 0 0 0
SMALL
GASTEIGER

@<TRIPOS>ATOM
     1 C         -0.32323   -1.365244   1.674048 C.3        1 UNL1     0.1889
     2 C         -0.460446   -0.980003   0.176483 C.3        1 UNL1     0.1342
     3 C         -1.903519   -0.957815   -0.350312 C.3        1 UNL1     0.1174
     4 C         -2.785759   -2.032253   0.290276 C.3        1 UNL1     0.1456
     5 C         -2.627687   -2.09051   1.82063 C.3        1 UNL1     0.2326
     6 O         -1.261071   -2.31432   2.159953 O.3        1 UNL1     -0.3076
     7 O         -3.201263   -0.958577   2.499643 O.3        1 UNL1     -0.4605
     8 C         -3.712432   -1.203738   3.761439 C.ar        1 UNL1     0.1310
     9 C         -4.530853   -2.284078   4.108358 C.ar        1 UNL1     0.0226
     10 C         -4.985189   -2.455479   5.421409 C.ar        1 UNL1     0.1343
     11 C         -4.612229   -1.562919   6.425441 C.ar        1 UNL1     0.1007
     12 C         -3.828965   -0.45752   6.082844 C.ar        1 UNL1     0.1389
     13 C         -3.374437   -0.283946   4.761971 C.ar        1 UNL1     0.0229
     14 C         -4.994364   -1.742467   7.845261 C.2        1 UNL1     0.1740
     15 C         -4.324707   -0.818576   8.819702 C.3        1 UNL1     0.0520
     16 C         -4.252613   0.568737   8.196708 C.3        1 UNL1     0.1322
     17 O         -3.493064   0.540312   6.968153 O.3        1 UNL1     -0.4828
     18 C         -5.610625   1.266217   8.086933 C.ar        1 UNL1     -0.0067
     19 C         -5.980262   1.874722   6.869845 C.ar        1 UNL1     -0.0516
     20 C         -7.194223   2.56163   6.74977 C.ar        1 UNL1     -0.0198
     21 C         -8.042   2.65324   7.839132 C.ar        1 UNL1     0.1169
     22 C         -7.721042   2.035921   9.041106 C.ar        1 UNL1     -0.0198
     23 C         -6.515596   1.333246   9.156011 C.ar        1 UNL1     -0.0516
     24 O         -9.198199   3.362482   7.695677 O.3        1 UNL1     -0.5068
     25 O         -5.744941   -2.632637   8.236051 O.2        1 UNL1     -0.2917
     26 O         -5.781494   -3.52939   5.693803 O.3        1 UNL1     -0.5058
     27 O         -0.215765   -0.245321   2.538345 O.3        1 UNL1     -0.3648
     28 O         0.268051   -1.94077   -0.610235 O.3        1 UNL1     -0.3841
     29 O         -2.462212   0.353129   -0.243433 O.3        1 UNL1     -0.3863
     30 O         -2.438845   -3.321002   -0.26151 O.3        1 UNL1     -0.3829
     31 H         0.638542   -1.879322   1.777959 H        1 UNL1     0.0937
     32 H         0.0   0.0   0.0 H        1 UNL1     0.0671
     33 H         -1.87072   -1.174081   -1.427286 H        1 UNL1     0.0649
     34 H         -3.837162   -1.849766   0.041983 H        1 UNL1     0.0683
     35 H         -3.180038   -2.993496   2.109426 H        1 UNL1     0.1085
     36 H         -4.809964   -3.043092   3.385783 H        1 UNL1     0.0691
     37 H         -2.766763   0.585576   4.520814 H        1 UNL1     0.0691
     38 H         -3.323176   -1.215238   9.01749 H        1 UNL1     0.0385
     39 H         -4.885641   -0.821331   9.760512 H        1 UNL1     0.0385
     40 H         -3.6572   1.196795   8.87313 H        1 UNL1     0.0789
     41 H         -5.328054   1.824852   6.002787 H        1 UNL1     0.0623
     42 H         -7.462528   3.036798   5.80943 H        1 UNL1     0.0654
     43 H         -8.384561   2.088625   9.896019 H        1 UNL1     0.0654
     44 H         -6.301804   0.854235   10.106636 H        1 UNL1     0.0623
     45 H         -8.969467   4.285744   7.500777 H        1 UNL1     0.2921
     46 H         -5.37976   -4.059038   6.400552 H        1 UNL1     0.2922
     47 H         0.512443   0.326035   2.257051 H        1 UNL1     0.2126
     48 H         1.208246   -1.850128   -0.362144 H        1 UNL1     0.2101
     49 H         -2.03261   0.947752   -0.878775 H        1 UNL1     0.2100
     50 H         -2.681285   -3.317744   -1.21068 H        1 UNL1     0.2102
@<TRIPOS>BOND
     1     1     2    1
     2     1     6    1
     3     2     3    1
     4     3     4    1
     5     3    29    1
     6     3    33    1
     7     4     5    1
     8     5     6    1
     9     5     7    1
    10     5    35    1
    11     7     8    1
    12     8     9   ar
    13     8    13   ar
    14     9    10   ar
    15     9    36    1
    16    10    11   ar
    17    10    26    1
    18    11    12   ar
    19    11    14    1
    20    12    13   ar
    21    12    17    1
    22    13    37    1
    23    14    15    1
    24    14    25    2
    25    15    16    1
    26    15    38    1
    27    15    39    1
    28    16    17    1
    29    16    18    1
    30    16    40    1
    31    18    19   ar
    32    18    23   ar
    33    19    20   ar
    34    19    41    1
    35    20    21   ar
    36    20    42    1
    37    21    22   ar
    38    21    24    1
    39    22    23   ar
    40    22    43    1
    41    23    44    1
    42    24    45    1
    43    26    46    1
    44    27    47    1
    45    28    48    1
    46    29    49    1
    47    30    50    1
    48     1    31    1
    49     1    27    1
    50     2    32    1
    51     2    28    1
    52     4    34    1
    53     4    30    1
