@<TRIPOS>MOLECULE
*****
 50 53 0 0 0
SMALL
GASTEIGER

@<TRIPOS>ATOM
     1 C         -0.330976   -1.327505   1.702642 C.3        1 UNL1     0.1889
     2 C         -0.461997   -0.975479   0.196371 C.3        1 UNL1     0.1342
     3 C         -1.90298   -0.963837   -0.33645 C.3        1 UNL1     0.1174
     4 C         -2.788665   -2.023094   0.324347 C.3        1 UNL1     0.1456
     5 C         -2.636628   -2.047506   1.856226 C.3        1 UNL1     0.2326
     6 O         -1.271547   -2.264819   2.205796 O.3        1 UNL1     -0.3076
     7 O         -3.211854   -0.900329   2.507702 O.3        1 UNL1     -0.4605
     8 C         -3.72095   -1.115238   3.775836 C.ar        1 UNL1     0.1310
     9 C         -4.536581   -2.18841   4.150466 C.ar        1 UNL1     0.0226
     10 C         -4.988942   -2.328189   5.467938 C.ar        1 UNL1     0.1343
     11 C         -4.616716   -1.410211   6.449063 C.ar        1 UNL1     0.1007
     12 C         -3.836291   -0.311956   6.078178 C.ar        1 UNL1     0.1389
     13 C         -3.383752   -0.170199   4.752831 C.ar        1 UNL1     0.0229
     14 C         -4.996729   -1.555332   7.873382 C.2        1 UNL1     0.1740
     15 C         -4.327912   -0.606125   8.823771 C.3        1 UNL1     0.0520
     16 C         -4.259614   0.76547   8.16649 C.3        1 UNL1     0.1322
     17 O         -3.5015   0.708238   6.938053 O.3        1 UNL1     -0.4828
     18 C         -5.619281   1.457082   8.041187 C.ar        1 UNL1     -0.0067
     19 C         -5.999175   2.018906   6.804963 C.ar        1 UNL1     -0.0516
     20 C         -7.214865   2.699696   6.668632 C.ar        1 UNL1     -0.0198
     21 C         -8.05419   2.831565   7.760406 C.ar        1 UNL1     0.1169
     22 C         -7.723082   2.260318   8.982242 C.ar        1 UNL1     -0.0198
     23 C         -6.515928   1.56357   9.11407 C.ar        1 UNL1     -0.0516
     24 O         -9.21233   3.533843   7.599414 O.3        1 UNL1     -0.5068
     25 O         -5.744879   -2.437159   8.28707 O.2        1 UNL1     -0.2917
     26 O         -5.782562   -3.396734   5.767879 O.3        1 UNL1     -0.5058
     27 O         -0.225902   -0.188766   2.542296 O.3        1 UNL1     -0.3648
     28 O         0.268721   -1.954045   -0.56597 O.3        1 UNL1     -0.3841
     29 O         -2.460928   0.3496   -0.260876 O.3        1 UNL1     -0.3863
     30 O         -2.440735   -3.324045   -0.197344 O.3        1 UNL1     -0.3829
     31 H         0.629928   -1.839917   1.821709 H        1 UNL1     0.0937
     32 H         0.0   0.0   0.0 H        1 UNL1     0.0671
     33 H         -1.866163   -1.203973   -1.408223 H        1 UNL1     0.0649
     34 H         -3.838929   -1.845325   0.067939 H        1 UNL1     0.0683
     35 H         -3.190901   -2.943422   2.162812 H        1 UNL1     0.1085
     36 H         -4.814909   -2.965704   3.447282 H        1 UNL1     0.0691
     37 H         -2.778277   0.694387   4.489424 H        1 UNL1     0.0691
     38 H         -3.325274   -0.9956   9.030058 H        1 UNL1     0.0385
     39 H         -4.887693   -0.586768   9.765073 H        1 UNL1     0.0385
     40 H         -3.664754   1.411387   8.82638 H        1 UNL1     0.0789
     41 H         -5.353721   1.936956   5.935295 H        1 UNL1     0.0623
     42 H         -7.491101   3.13881   5.713182 H        1 UNL1     0.0654
     43 H         -8.379945   2.344633   9.839757 H        1 UNL1     0.0654
     44 H         -6.294119   1.120954   10.08037 H        1 UNL1     0.0623
     45 H         -8.986893   4.441343   7.337995 H        1 UNL1     0.2921
     46 H         -5.378119   -3.908609   6.486086 H        1 UNL1     0.2922
     47 H         0.488864   0.387351   2.23724 H        1 UNL1     0.2126
     48 H         1.20169   -1.887682   -0.285086 H        1 UNL1     0.2101
     49 H         -2.022474   0.931782   -0.901669 H        1 UNL1     0.2100
     50 H         -2.674243   -3.339727   -1.148628 H        1 UNL1     0.2102
@<TRIPOS>BOND
     1     1     2    1
     2     1     6    1
     3     2     3    1
     4     3     4    1
     5     3    29    1
     6     3    33    1
     7     4     5    1
     8     5     6    1
     9     5     7    1
    10     5    35    1
    11     7     8    1
    12     8     9   ar
    13     8    13   ar
    14     9    10   ar
    15     9    36    1
    16    10    11   ar
    17    10    26    1
    18    11    12   ar
    19    11    14    1
    20    12    13   ar
    21    12    17    1
    22    13    37    1
    23    14    15    1
    24    14    25    2
    25    15    16    1
    26    15    38    1
    27    15    39    1
    28    16    17    1
    29    16    18    1
    30    16    40    1
    31    18    19   ar
    32    18    23   ar
    33    19    20   ar
    34    19    41    1
    35    20    21   ar
    36    20    42    1
    37    21    22   ar
    38    21    24    1
    39    22    23   ar
    40    22    43    1
    41    23    44    1
    42    24    45    1
    43    26    46    1
    44    27    47    1
    45    28    48    1
    46    29    49    1
    47    30    50    1
    48     1    31    1
    49     1    27    1
    50     2    32    1
    51     2    28    1
    52     4    34    1
    53     4    30    1
