@<TRIPOS>MOLECULE
*****
 50 53 0 0 0
SMALL
GASTEIGER

@<TRIPOS>ATOM
     1 C         -0.326675   -1.366598   1.672273 C.3        1 UNL1     0.1889
     2 C         -0.462209   -0.979429   0.175052 C.3        1 UNL1     0.1342
     3 C         -1.904878   -0.954226   -0.352714 C.3        1 UNL1     0.1174
     4 C         -2.789359   -2.027911   0.286044 C.3        1 UNL1     0.1456
     5 C         -2.632444   -2.088167   1.81644 C.3        1 UNL1     0.2326
     6 O         -1.266441   -2.314652   2.156453 O.3        1 UNL1     -0.3076
     7 O         -3.204594   -0.956046   2.496341 O.3        1 UNL1     -0.4605
     8 C         -3.720445   -1.202573   3.755964 C.ar        1 UNL1     0.1310
     9 C         -4.543307   -2.281161   4.097793 C.ar        1 UNL1     0.0226
     10 C         -5.002254   -2.454227   5.40902 C.ar        1 UNL1     0.1343
     11 C         -4.629635   -1.565201   6.416308 C.ar        1 UNL1     0.1007
     12 C         -3.841864   -0.461454   6.078752 C.ar        1 UNL1     0.1389
     13 C         -3.382694   -0.286198   4.759707 C.ar        1 UNL1     0.0229
     14 C         -5.016739   -1.74689   7.834508 C.2        1 UNL1     0.1740
     15 C         -4.347236   -0.827391   8.813199 C.3        1 UNL1     0.0520
     16 C         -4.268878   0.561151   8.193708 C.3        1 UNL1     0.1322
     17 O         -3.505606   0.533238   6.967451 O.3        1 UNL1     -0.4828
     18 C         -5.624359   1.26313   8.08137 C.ar        1 UNL1     -0.0067
     19 C         -5.988311   1.875647   6.864581 C.ar        1 UNL1     -0.0516
     20 C         -7.199744   2.566629   6.742364 C.ar        1 UNL1     -0.0198
     21 C         -8.050613   2.658328   7.829305 C.ar        1 UNL1     0.1169
     22 C         -7.73532   2.037185   9.030808 C.ar        1 UNL1     -0.0198
     23 C         -6.532435   1.330475   9.147792 C.ar        1 UNL1     -0.0516
     24 O         -9.204142   3.371518   7.68394 O.3        1 UNL1     -0.5068
     25 O         -5.7713   -2.635625   8.220867 O.2        1 UNL1     -0.2917
     26 O         -5.802749   -3.52628   5.676407 O.3        1 UNL1     -0.5058
     27 O         -0.217933   -0.247837   2.537915 O.3        1 UNL1     -0.3648
     28 O         0.265223   -1.940523   -0.612252 O.3        1 UNL1     -0.3841
     29 O         -2.461447   0.357529   -0.244733 O.3        1 UNL1     -0.3863
     30 O         -2.444222   -3.316612   -0.266964 O.3        1 UNL1     -0.3829
     31 H         0.634162   -1.882405   1.776265 H        1 UNL1     0.0937
     32 H         0.0   0.0   0.0 H        1 UNL1     0.0671
     33 H         -1.871695   -1.169326   -1.42991 H        1 UNL1     0.0649
     34 H         -3.840283   -1.843381   0.037232 H        1 UNL1     0.0683
     35 H         -3.186507   -2.990554   2.103829 H        1 UNL1     0.1085
     36 H         -4.822538   -3.037598   3.372566 H        1 UNL1     0.0691
     37 H         -2.771563   0.581984   4.52249 H        1 UNL1     0.0691
     38 H         -3.347566   -1.227647   9.013155 H        1 UNL1     0.0385
     39 H         -4.911096   -0.830604   9.752256 H        1 UNL1     0.0385
     40 H         -3.673613   1.185751   8.873454 H        1 UNL1     0.0789
     41 H         -5.33357   1.825777   5.999435 H        1 UNL1     0.0623
     42 H         -7.463641   3.044843   5.802321 H        1 UNL1     0.0654
     43 H         -8.401325   2.089953   9.883781 H        1 UNL1     0.0654
     44 H         -6.323095   0.848564   10.097941 H        1 UNL1     0.0623
     45 H         -8.971926   4.294516   7.491931 H        1 UNL1     0.2921
     46 H         -5.404868   -4.058842   6.383146 H        1 UNL1     0.2922
     47 H         0.511425   0.322616   2.257773 H        1 UNL1     0.2126
     48 H         1.205396   -1.851738   -0.363409 H        1 UNL1     0.2101
     49 H         -2.03041   0.952153   -0.879102 H        1 UNL1     0.2100
     50 H         -2.685999   -3.311872   -1.216297 H        1 UNL1     0.2102
@<TRIPOS>BOND
     1     1     2    1
     2     1     6    1
     3     2     3    1
     4     3     4    1
     5     3    29    1
     6     3    33    1
     7     4     5    1
     8     5     6    1
     9     5     7    1
    10     5    35    1
    11     7     8    1
    12     8     9   ar
    13     8    13   ar
    14     9    10   ar
    15     9    36    1
    16    10    11   ar
    17    10    26    1
    18    11    12   ar
    19    11    14    1
    20    12    13   ar
    21    12    17    1
    22    13    37    1
    23    14    15    1
    24    14    25    2
    25    15    16    1
    26    15    38    1
    27    15    39    1
    28    16    17    1
    29    16    18    1
    30    16    40    1
    31    18    19   ar
    32    18    23   ar
    33    19    20   ar
    34    19    41    1
    35    20    21   ar
    36    20    42    1
    37    21    22   ar
    38    21    24    1
    39    22    23   ar
    40    22    43    1
    41    23    44    1
    42    24    45    1
    43    26    46    1
    44    27    47    1
    45    28    48    1
    46    29    49    1
    47    30    50    1
    48     1    31    1
    49     1    27    1
    50     2    32    1
    51     2    28    1
    52     4    34    1
    53     4    30    1
