@<TRIPOS>MOLECULE
*****
 50 53 0 0 0
SMALL
GASTEIGER

@<TRIPOS>ATOM
     1 C         -1.522025   -1.307504   0.862947 C.3        1 UNL1     0.1889
     2 C         -0.887551   -0.550991   -0.334998 C.3        1 UNL1     0.1342
     3 C         -1.836445   0.418374   -1.056383 C.3        1 UNL1     0.1174
     4 C         -3.281955   -0.083836   -1.09385 C.3        1 UNL1     0.1456
     5 C         -3.761631   -0.604166   0.273458 C.3        1 UNL1     0.2326
     6 O         -2.895886   -1.640982   0.72993 O.3        1 UNL1     -0.3076
     7 O         -3.958521   0.437922   1.246396 O.3        1 UNL1     -0.4605
     8 C         -4.962329   0.220384   2.17299 C.ar        1 UNL1     0.1310
     9 C         -6.245048   -0.255911   1.881313 C.ar        1 UNL1     0.0226
     10 C         -7.18907   -0.460017   2.894755 C.ar        1 UNL1     0.1343
     11 C         -6.865137   -0.215117   4.228522 C.ar        1 UNL1     0.1007
     12 C         -5.600938   0.299669   4.527822 C.ar        1 UNL1     0.1389
     13 C         -4.652791   0.507314   3.508346 C.ar        1 UNL1     0.0229
     14 C         -7.795469   -0.492749   5.347251 C.2        1 UNL1     0.1740
     15 C         -7.207276   -0.382996   6.723308 C.3        1 UNL1     0.0520
     16 C         -6.280007   0.824091   6.756038 C.3        1 UNL1     0.1322
     17 O         -5.213631   0.677811   5.792444 O.3        1 UNL1     -0.4828
     18 C         -7.013126   2.166166   6.692047 C.ar        1 UNL1     -0.0067
     19 C         -6.29109   3.360104   6.895488 C.ar        1 UNL1     -0.0516
     20 C         -6.939045   4.601109   6.89066 C.ar        1 UNL1     -0.0198
     21 C         -8.306706   4.660855   6.69126 C.ar        1 UNL1     0.1169
     22 C         -9.039809   3.505213   6.454851 C.ar        1 UNL1     -0.0198
     23 C         -8.389213   2.265617   6.441271 C.ar        1 UNL1     -0.0516
     24 O         -8.908992   5.883999   6.730898 O.3        1 UNL1     -0.5068
     25 O         -8.953712   -0.868232   5.186091 O.2        1 UNL1     -0.2917
     26 O         -8.422665   -0.925259   2.543504 O.3        1 UNL1     -0.5058
     27 O         -1.247811   -0.708174   2.11929 O.3        1 UNL1     -0.3648
     28 O         -0.446698   -1.519813   -1.304399 O.3        1 UNL1     -0.3841
     29 O         -1.722249   1.736209   -0.51564 O.3        1 UNL1     -0.3863
     30 O         -3.387424   -1.152113   -2.059951 O.3        1 UNL1     -0.3829
     31 H         -1.02573   -2.28271   0.915335 H        1 UNL1     0.0937
     32 H         0.0   0.0   0.0 H        1 UNL1     0.0671
     33 H         -1.501612   0.501124   -2.099819 H        1 UNL1     0.0649
     34 H         -3.948111   0.718699   -1.429372 H        1 UNL1     0.0683
     35 H         -4.730084   -1.070853   0.05396 H        1 UNL1     0.1085
     36 H         -6.539917   -0.518085   0.871146 H        1 UNL1     0.0691
     37 H         -3.675954   0.910001   3.767434 H        1 UNL1     0.0691
     38 H         -6.657508   -1.308894   6.923295 H        1 UNL1     0.0385
     39 H         -8.018392   -0.30198   7.454954 H        1 UNL1     0.0385
     40 H         -5.772704   0.816253   7.730257 H        1 UNL1     0.0789
     41 H         -5.218216   3.339221   7.06329 H        1 UNL1     0.0623
     42 H         -6.373096   5.513716   7.060551 H        1 UNL1     0.0654
     43 H         -10.108871   3.541877   6.28259 H        1 UNL1     0.0654
     44 H         -8.991381   1.384193   6.242953 H        1 UNL1     0.0623
     45 H         -8.82581   6.237782   7.631251 H        1 UNL1     0.2921
     46 H         -8.619281   -1.731836   3.045687 H        1 UNL1     0.2922
     47 H         -0.293611   -0.603153   2.239012 H        1 UNL1     0.2126
     48 H         0.343518   -1.952737   -0.927744 H        1 UNL1     0.2101
     49 H         -0.950535   2.18389   -0.89752 H        1 UNL1     0.2100
     50 H         -3.243382   -0.769012   -2.950006 H        1 UNL1     0.2102
@<TRIPOS>BOND
     1     1     2    1
     2     1     6    1
     3     2     3    1
     4     3     4    1
     5     3    29    1
     6     3    33    1
     7     4     5    1
     8     5     6    1
     9     5     7    1
    10     5    35    1
    11     7     8    1
    12     8     9   ar
    13     8    13   ar
    14     9    10   ar
    15     9    36    1
    16    10    11   ar
    17    10    26    1
    18    11    12   ar
    19    11    14    1
    20    12    13   ar
    21    12    17    1
    22    13    37    1
    23    14    15    1
    24    14    25    2
    25    15    16    1
    26    15    38    1
    27    15    39    1
    28    16    17    1
    29    16    18    1
    30    16    40    1
    31    18    19   ar
    32    18    23   ar
    33    19    20   ar
    34    19    41    1
    35    20    21   ar
    36    20    42    1
    37    21    22   ar
    38    21    24    1
    39    22    23   ar
    40    22    43    1
    41    23    44    1
    42    24    45    1
    43    26    46    1
    44    27    47    1
    45    28    48    1
    46    29    49    1
    47    30    50    1
    48     1    31    1
    49     1    27    1
    50     2    32    1
    51     2    28    1
    52     4    34    1
    53     4    30    1
