@<TRIPOS>MOLECULE
*****
 50 53 0 0 0
SMALL
GASTEIGER

@<TRIPOS>ATOM
     1 C         -0.565682   -1.412048   1.56746 C.3        1 UNL1     0.1889
     2 C         -0.577526   -0.928158   0.092451 C.3        1 UNL1     0.1342
     3 C         -1.978315   -0.707743   -0.498882 C.3        1 UNL1     0.1174
     4 C         -3.009978   -1.707004   0.030518 C.3        1 UNL1     0.1456
     5 C         -2.942093   -1.870991   1.559852 C.3        1 UNL1     0.2326
     6 O         -1.629957   -2.271653   1.947975 O.3        1 UNL1     -0.3076
     7 O         -3.419175   -0.720757   2.281429 O.3        1 UNL1     -0.4605
     8 C         -4.015229   -0.976018   3.50335 C.ar        1 UNL1     0.1310
     9 C         -4.964195   -1.974152   3.749298 C.ar        1 UNL1     0.0226
     10 C         -5.498162   -2.165535   5.029203 C.ar        1 UNL1     0.1343
     11 C         -5.078013   -1.378141   6.100336 C.ar        1 UNL1     0.1007
     12 C         -4.161379   -0.351401   5.858734 C.ar        1 UNL1     0.1389
     13 C         -3.626601   -0.157451   4.571168 C.ar        1 UNL1     0.0229
     14 C         -5.546413   -1.591719   7.489271 C.2        1 UNL1     0.1740
     15 C         -4.826835   -0.80525   8.545312 C.3        1 UNL1     0.0520
     16 C         -4.57126   0.597363   8.011162 C.3        1 UNL1     0.1322
     17 O         -3.760572   0.551214   6.816287 O.3        1 UNL1     -0.4828
     18 C         -5.836693   1.449362   7.886671 C.ar        1 UNL1     -0.0067
     19 C         -6.084369   2.150586   6.688691 C.ar        1 UNL1     -0.0516
     20 C         -7.207542   2.976139   6.55866 C.ar        1 UNL1     -0.0198
     21 C         -8.084665   3.114315   7.619504 C.ar        1 UNL1     0.1169
     22 C         -7.885673   2.410579   8.80018 C.ar        1 UNL1     -0.0198
     23 C         -6.772505   1.570583   8.923955 C.ar        1 UNL1     -0.0516
     24 O         -9.147006   3.956509   7.469362 O.3        1 UNL1     -0.5068
     25 O         -6.40911   -2.411334   7.793361 O.2        1 UNL1     -0.2917
     26 O         -6.420832   -3.155663   5.202152 O.3        1 UNL1     -0.5058
     27 O         -0.378446   -0.363727   2.504878 O.3        1 UNL1     -0.3648
     28 O         0.078471   -1.920555   -0.718427 O.3        1 UNL1     -0.3841
     29 O         -2.389535   0.651075   -0.335659 O.3        1 UNL1     -0.3863
     30 O         -2.782407   -2.993608   -0.584747 O.3        1 UNL1     -0.3829
     31 H         0.324533   -2.039827   1.6836 H        1 UNL1     0.0937
     32 H         0.0   0.0   0.0 H        1 UNL1     0.0671
     33 H         -1.912389   -0.864211   -1.58465 H        1 UNL1     0.0649
     34 H         -4.018986   -1.389276   -0.254707 H        1 UNL1     0.0683
     35 H         -3.608097   -2.718518   1.764832 H        1 UNL1     0.1085
     36 H         -5.29011   -2.655334   2.970908 H        1 UNL1     0.0691
     37 H         -2.915335   0.649582   4.409022 H        1 UNL1     0.0691
     38 H         -3.886234   -1.323297   8.760771 H        1 UNL1     0.0385
     39 H         -5.429798   -0.796587   9.459718 H        1 UNL1     0.0385
     40 H         -3.943622   1.115326   8.748932 H        1 UNL1     0.0789
     41 H         -5.406057   2.06605   5.844655 H        1 UNL1     0.0623
     42 H         -7.381178   3.520935   5.633966 H        1 UNL1     0.0654
     43 H         -8.574387   2.499767   9.631822 H        1 UNL1     0.0654
     44 H         -6.653852   1.027721   9.856729 H        1 UNL1     0.0623
     45 H         -8.808098   4.851243   7.304105 H        1 UNL1     0.2921
     46 H         -6.114502   -3.766633   5.890839 H        1 UNL1     0.2922
     47 H         0.433481   0.122878   2.305255 H        1 UNL1     0.2126
     48 H         0.998598   -1.980897   -0.396779 H        1 UNL1     0.2101
     49 H         -1.85605   1.228   -0.905173 H        1 UNL1     0.2100
     50 H         -2.966037   -2.906251   -1.543059 H        1 UNL1     0.2102
@<TRIPOS>BOND
     1     1     2    1
     2     1     6    1
     3     2     3    1
     4     3     4    1
     5     3    29    1
     6     3    33    1
     7     4     5    1
     8     5     6    1
     9     5     7    1
    10     5    35    1
    11     7     8    1
    12     8     9   ar
    13     8    13   ar
    14     9    10   ar
    15     9    36    1
    16    10    11   ar
    17    10    26    1
    18    11    12   ar
    19    11    14    1
    20    12    13   ar
    21    12    17    1
    22    13    37    1
    23    14    15    1
    24    14    25    2
    25    15    16    1
    26    15    38    1
    27    15    39    1
    28    16    17    1
    29    16    18    1
    30    16    40    1
    31    18    19   ar
    32    18    23   ar
    33    19    20   ar
    34    19    41    1
    35    20    21   ar
    36    20    42    1
    37    21    22   ar
    38    21    24    1
    39    22    23   ar
    40    22    43    1
    41    23    44    1
    42    24    45    1
    43    26    46    1
    44    27    47    1
    45    28    48    1
    46    29    49    1
    47    30    50    1
    48     1    31    1
    49     1    27    1
    50     2    32    1
    51     2    28    1
    52     4    34    1
    53     4    30    1
