@<TRIPOS>MOLECULE
*****
 50 53 0 0 0
SMALL
GASTEIGER

@<TRIPOS>ATOM
     1 C         -0.368725   -1.396958   1.638095 C.3        1 UNL1     0.1889
     2 C         -0.48706   -0.971539   0.149822 C.3        1 UNL1     0.1342
     3 C         -1.925964   -0.8983   -0.383709 C.3        1 UNL1     0.1174
     4 C         -2.839845   -1.964477   0.225557 C.3        1 UNL1     0.1456
     5 C         -2.692259   -2.064481   1.7548 C.3        1 UNL1     0.2326
     6 O         -1.333993   -2.332584   2.09554 O.3        1 UNL1     -0.3076
     7 O         -3.239828   -0.934821   2.458616 O.3        1 UNL1     -0.4605
     8 C         -3.768   -1.198   3.709735 C.ar        1 UNL1     0.1310
     9 C         -4.610543   -2.269582   4.024592 C.ar        1 UNL1     0.0226
     10 C         -5.08097   -2.461289   5.329142 C.ar        1 UNL1     0.1343
     11 C         -4.700671   -1.598806   6.356437 C.ar        1 UNL1     0.1007
     12 C         -3.892834   -0.501584   6.046135 C.ar        1 UNL1     0.1389
     13 C         -3.422096   -0.307535   4.733815 C.ar        1 UNL1     0.0229
     14 C         -5.100119   -1.802449   7.768217 C.2        1 UNL1     0.1740
     15 C         -4.422296   -0.913795   8.769416 C.3        1 UNL1     0.0520
     16 C         -4.317254   0.485386   8.17847 C.3        1 UNL1     0.1322
     17 O         -3.546383   0.469497   6.956761 O.3        1 UNL1     -0.4828
     18 C         -5.660368   1.211584   8.071679 C.ar        1 UNL1     -0.0067
     19 C         -5.757225   2.376039   7.282453 C.ar        1 UNL1     -0.0516
     20 C         -6.958244   3.090809   7.201094 C.ar        1 UNL1     -0.0198
     21 C         -8.065001   2.656547   7.908435 C.ar        1 UNL1     0.1169
     22 C         -8.010137   1.494855   8.66758 C.ar        1 UNL1     -0.0198
     23 C         -6.81444   0.769665   8.734415 C.ar        1 UNL1     -0.0516
     24 O         -9.206584   3.399372   7.834955 O.3        1 UNL1     -0.5068
     25 O         -5.871583   -2.68625   8.131844 O.2        1 UNL1     -0.2917
     26 O         -5.900547   -3.525215   5.569847 O.3        1 UNL1     -0.5058
     27 O         -0.236892   -0.301843   2.530357 O.3        1 UNL1     -0.3648
     28 O         0.220499   -1.93159   -0.656632 O.3        1 UNL1     -0.3841
     29 O         -2.450624   0.423921   -0.247343 O.3        1 UNL1     -0.3863
     30 O         -2.523716   -3.247991   -0.356118 O.3        1 UNL1     -0.3829
     31 H         0.578584   -1.93866   1.734232 H        1 UNL1     0.0937
     32 H         0.0   0.0   0.0 H        1 UNL1     0.0671
     33 H         -1.892599   -1.088825   -1.465516 H        1 UNL1     0.0649
     34 H         -3.884628   -1.748234   -0.023575 H        1 UNL1     0.0683
     35 H         -3.269819   -2.959386   2.018329 H        1 UNL1     0.1085
     36 H         -4.897192   -3.00669   3.282552 H        1 UNL1     0.0691
     37 H         -2.795368   0.555088   4.517974 H        1 UNL1     0.0691
     38 H         -3.430619   -1.334294   8.967616 H        1 UNL1     0.0385
     39 H         -4.99238   -0.926545   9.704627 H        1 UNL1     0.0385
     40 H         -3.71646   1.086434   8.874392 H        1 UNL1     0.0789
     41 H         -4.900212   2.742636   6.72497 H        1 UNL1     0.0623
     42 H         -7.016954   3.993879   6.598574 H        1 UNL1     0.0654
     43 H         -8.875128   1.137506   9.213475 H        1 UNL1     0.0654
     44 H         -6.810412   -0.139074   9.328572 H        1 UNL1     0.0623
     45 H         -9.037438   4.26303   8.24508 H        1 UNL1     0.2921
     46 H         -5.527237   -4.066199   6.283561 H        1 UNL1     0.2922
     47 H         0.507702   0.256818   2.267037 H        1 UNL1     0.2126
     48 H         1.172657   -1.778886   -0.502331 H        1 UNL1     0.2101
     49 H         -2.135817   0.980775   -0.97714 H        1 UNL1     0.2100
     50 H         -2.78142   -3.222538   -1.300922 H        1 UNL1     0.2102
@<TRIPOS>BOND
     1     1     2    1
     2     1     6    1
     3     2     3    1
     4     3     4    1
     5     3    29    1
     6     3    33    1
     7     4     5    1
     8     5     6    1
     9     5     7    1
    10     5    35    1
    11     7     8    1
    12     8     9   ar
    13     8    13   ar
    14     9    10   ar
    15     9    36    1
    16    10    11   ar
    17    10    26    1
    18    11    12   ar
    19    11    14    1
    20    12    13   ar
    21    12    17    1
    22    13    37    1
    23    14    15    1
    24    14    25    2
    25    15    16    1
    26    15    38    1
    27    15    39    1
    28    16    17    1
    29    16    18    1
    30    16    40    1
    31    18    19   ar
    32    18    23   ar
    33    19    20   ar
    34    19    41    1
    35    20    21   ar
    36    20    42    1
    37    21    22   ar
    38    21    24    1
    39    22    23   ar
    40    22    43    1
    41    23    44    1
    42    24    45    1
    43    26    46    1
    44    27    47    1
    45    28    48    1
    46    29    49    1
    47    30    50    1
    48     1    31    1
    49     1    27    1
    50     2    32    1
    51     2    28    1
    52     4    34    1
    53     4    30    1
