@<TRIPOS>MOLECULE
*****
 50 53 0 0 0
SMALL
GASTEIGER

@<TRIPOS>ATOM
     1 C         1.268362   -0.990096   -1.477083 C.3        1 UNL1     0.1889
     2 C         -0.099347   -0.426997   -1.005667 C.3        1 UNL1     0.1342
     3 C         -1.247434   -1.447958   -1.005405 C.3        1 UNL1     0.1174
     4 C         -1.142666   -2.459182   -2.149768 C.3        1 UNL1     0.1456
     5 C         0.275684   -3.039853   -2.29629 C.3        1 UNL1     0.2326
     6 O         1.215288   -1.984917   -2.488966 O.3        1 UNL1     -0.3076
     7 O         0.641246   -3.935622   -1.230793 O.3        1 UNL1     -0.4605
     8 C         0.407457   -3.477548   0.053356 C.ar        1 UNL1     0.1310
     9 C         0.881772   -4.075439   1.225897 C.ar        1 UNL1     0.0226
     10 C         0.604513   -3.524334   2.482604 C.ar        1 UNL1     0.1343
     11 C         -0.134501   -2.347539   2.595975 C.ar        1 UNL1     0.1007
     12 C         -0.648182   -1.763913   1.434814 C.ar        1 UNL1     0.1389
     13 C         -0.371489   -2.319703   0.171497 C.ar        1 UNL1     0.0229
     14 C         -0.385941   -1.676233   3.892231 C.2        1 UNL1     0.1740
     15 C         -1.002314   -0.310784   3.807474 C.3        1 UNL1     0.0520
     16 C         -2.062383   -0.327683   2.714805 C.3        1 UNL1     0.1322
     17 O         -1.477403   -0.666349   1.438022 O.3        1 UNL1     -0.4828
     18 C         -3.308029   -1.139893   3.077301 C.ar        1 UNL1     -0.0067
     19 C         -4.515676   -0.467964   3.357149 C.ar        1 UNL1     -0.0516
     20 C         -5.660896   -1.177475   3.737973 C.ar        1 UNL1     -0.0198
     21 C         -5.609515   -2.555428   3.849471 C.ar        1 UNL1     0.1169
     22 C         -4.444084   -3.248089   3.548088 C.ar        1 UNL1     -0.0198
     23 C         -3.303847   -2.540315   3.149376 C.ar        1 UNL1     -0.0516
     24 O         -6.734112   -3.209265   4.259568 O.3        1 UNL1     -0.5068
     25 O         -0.048544   -2.148263   4.974744 O.2        1 UNL1     -0.2917
     26 O         1.095604   -4.156853   3.587292 O.3        1 UNL1     -0.5058
     27 O         2.120019   -1.374007   -0.409338 O.3        1 UNL1     -0.3648
     28 O         -0.479739   0.645174   -1.887969 O.3        1 UNL1     -0.3841
     29 O         -1.371251   -2.071419   0.274477 O.3        1 UNL1     -0.3863
     30 O         -1.509804   -1.813004   -3.388054 O.3        1 UNL1     -0.3829
     31 H         1.798052   -0.161664   -1.959999 H        1 UNL1     0.0937
     32 H         0.0   0.0   0.0 H        1 UNL1     0.0671
     33 H         -2.1865   -0.896637   -1.153458 H        1 UNL1     0.0649
     34 H         -1.853952   -3.277472   -1.992048 H        1 UNL1     0.0683
     35 H         0.234202   -3.605528   -3.23553 H        1 UNL1     0.1085
     36 H         1.508574   -4.960114   1.201598 H        1 UNL1     0.0691
     37 H         -0.784055   -1.846839   -0.717144 H        1 UNL1     0.0691
     38 H         -0.20276   0.399408   3.571107 H        1 UNL1     0.0385
     39 H         -1.419099   -0.043831   4.784615 H        1 UNL1     0.0385
     40 H         -2.415045   0.70506   2.589939 H        1 UNL1     0.0789
     41 H         -4.579336   0.613933   3.28576 H        1 UNL1     0.0623
     42 H         -6.582882   -0.646937   3.962658 H        1 UNL1     0.0654
     43 H         -4.397066   -4.328308   3.617554 H        1 UNL1     0.0654
     44 H         -2.413621   -3.114526   2.911414 H        1 UNL1     0.0623
     45 H         -7.222377   -2.62897   4.865846 H        1 UNL1     0.2921
     46 H         1.711214   -4.855023   3.313441 H        1 UNL1     0.2922
     47 H         1.626445   -1.889194   0.243982 H        1 UNL1     0.2126
     48 H         -1.103484   1.208603   -1.390755 H        1 UNL1     0.2101
     49 H         -0.809622   -2.861953   0.312191 H        1 UNL1     0.2100
     50 H         -1.571097   -2.502466   -4.081307 H        1 UNL1     0.2102
@<TRIPOS>BOND
     1     1     2    1
     2     1     6    1
     3     2     3    1
     4     3     4    1
     5     3    29    1
     6     3    33    1
     7     4     5    1
     8     5     6    1
     9     5     7    1
    10     5    35    1
    11     7     8    1
    12     8     9   ar
    13     8    13   ar
    14     9    10   ar
    15     9    36    1
    16    10    11   ar
    17    10    26    1
    18    11    12   ar
    19    11    14    1
    20    12    13   ar
    21    12    17    1
    22    13    37    1
    23    14    15    1
    24    14    25    2
    25    15    16    1
    26    15    38    1
    27    15    39    1
    28    16    17    1
    29    16    18    1
    30    16    40    1
    31    18    19   ar
    32    18    23   ar
    33    19    20   ar
    34    19    41    1
    35    20    21   ar
    36    20    42    1
    37    21    22   ar
    38    21    24    1
    39    22    23   ar
    40    22    43    1
    41    23    44    1
    42    24    45    1
    43    26    46    1
    44    27    47    1
    45    28    48    1
    46    29    49    1
    47    30    50    1
    48     1    31    1
    49     1    27    1
    50     2    32    1
    51     2    28    1
    52     4    34    1
    53     4    30    1
