@<TRIPOS>MOLECULE
*****
 50 53 0 0 0
SMALL
GASTEIGER

@<TRIPOS>ATOM
     1 C         -0.328679   -1.329736   1.701345 C.3        1 UNL1     0.1889
     2 C         -0.461535   -0.975837   0.195674 C.3        1 UNL1     0.1342
     3 C         -1.903139   -0.963869   -0.335456 C.3        1 UNL1     0.1174
     4 C         -2.787802   -2.024175   0.32503 C.3        1 UNL1     0.1456
     5 C         -2.633977   -2.050486   1.856699 C.3        1 UNL1     0.2326
     6 O         -1.268439   -2.267912   2.204407 O.3        1 UNL1     -0.3076
     7 O         -3.208721   -0.904272   2.510293 O.3        1 UNL1     -0.4605
     8 C         -3.71629   -1.120906   3.778745 C.ar        1 UNL1     0.1310
     9 C         -4.531228   -2.194748   4.152966 C.ar        1 UNL1     0.0226
     10 C         -4.982024   -2.336301   5.470786 C.ar        1 UNL1     0.1343
     11 C         -4.608877   -1.419475   6.452637 C.ar        1 UNL1     0.1007
     12 C         -3.829147   -0.320563   6.082233 C.ar        1 UNL1     0.1389
     13 C         -3.378183   -0.177022   4.756542 C.ar        1 UNL1     0.0229
     14 C         -4.987199   -1.566487   7.877212 C.2        1 UNL1     0.1740
     15 C         -4.317504   -0.618321   8.828022 C.3        1 UNL1     0.0520
     16 C         -4.250298   0.75412   8.172397 C.3        1 UNL1     0.1322
     17 O         -3.4936   0.698623   6.943009 O.3        1 UNL1     -0.4828
     18 C         -5.610277   1.445562   8.049549 C.ar        1 UNL1     -0.0067
     19 C         -5.991742   2.008857   6.81448 C.ar        1 UNL1     -0.0516
     20 C         -7.207753   2.689526   6.680422 C.ar        1 UNL1     -0.0198
     21 C         -8.045839   2.819812   7.773337 C.ar        1 UNL1     0.1169
     22 C         -7.713174   2.247101   8.994064 C.ar        1 UNL1     -0.0198
     23 C         -6.505701   1.550478   9.123608 C.ar        1 UNL1     -0.0516
     24 O         -9.204334   3.522015   7.61458 O.3        1 UNL1     -0.5068
     25 O         -5.734656   -2.449016   8.290654 O.2        1 UNL1     -0.2917
     26 O         -5.775039   -3.405415   5.770297 O.3        1 UNL1     -0.5058
     27 O         -0.2229   -0.192034   2.542316 O.3        1 UNL1     -0.3648
     28 O         0.26853   -1.953263   -0.568753 O.3        1 UNL1     -0.3841
     29 O         -2.461314   0.349336   -0.257573 O.3        1 UNL1     -0.3863
     30 O         -2.440167   -3.324381   -0.198709 O.3        1 UNL1     -0.3829
     31 H         0.632486   -1.842066   1.818648 H        1 UNL1     0.0937
     32 H         0.0   0.0   0.0 H        1 UNL1     0.0671
     33 H         -1.867511   -1.202641   -1.407574 H        1 UNL1     0.0649
     34 H         -3.838405   -1.846334   0.070068 H        1 UNL1     0.0683
     35 H         -3.187679   -2.946922   2.162797 H        1 UNL1     0.1085
     36 H         -4.810187   -2.971219   3.449124 H        1 UNL1     0.0691
     37 H         -2.773221   0.688042   4.493525 H        1 UNL1     0.0691
     38 H         -3.314534   -1.007815   9.032651 H        1 UNL1     0.0385
     39 H         -4.876195   -0.600289   9.769998 H        1 UNL1     0.0385
     40 H         -3.654827   1.399345   8.832411 H        1 UNL1     0.0789
     41 H         -5.34728   1.928162   5.943958 H        1 UNL1     0.0623
     42 H         -7.485204   3.129781   5.72585 H        1 UNL1     0.0654
     43 H         -8.36906   2.330174   9.852448 H        1 UNL1     0.0654
     44 H         -6.282662   1.106694   10.089089 H        1 UNL1     0.0623
     45 H         -8.979454   4.429589   7.352941 H        1 UNL1     0.2921
     46 H         -5.368992   -3.918827   6.4865 H        1 UNL1     0.2922
     47 H         0.519427   0.36229   2.263866 H        1 UNL1     0.2126
     48 H         1.201631   -1.887764   -0.288102 H        1 UNL1     0.2101
     49 H         -2.023685   0.932456   -0.898078 H        1 UNL1     0.2100
     50 H         -2.674777   -3.338917   -1.14974 H        1 UNL1     0.2102
@<TRIPOS>BOND
     1     1     2    1
     2     1     6    1
     3     2     3    1
     4     3     4    1
     5     3    29    1
     6     3    33    1
     7     4     5    1
     8     5     6    1
     9     5     7    1
    10     5    35    1
    11     7     8    1
    12     8     9   ar
    13     8    13   ar
    14     9    10   ar
    15     9    36    1
    16    10    11   ar
    17    10    26    1
    18    11    12   ar
    19    11    14    1
    20    12    13   ar
    21    12    17    1
    22    13    37    1
    23    14    15    1
    24    14    25    2
    25    15    16    1
    26    15    38    1
    27    15    39    1
    28    16    17    1
    29    16    18    1
    30    16    40    1
    31    18    19   ar
    32    18    23   ar
    33    19    20   ar
    34    19    41    1
    35    20    21   ar
    36    20    42    1
    37    21    22   ar
    38    21    24    1
    39    22    23   ar
    40    22    43    1
    41    23    44    1
    42    24    45    1
    43    26    46    1
    44    27    47    1
    45    28    48    1
    46    29    49    1
    47    30    50    1
    48     1    31    1
    49     1    27    1
    50     2    32    1
    51     2    28    1
    52     4    34    1
    53     4    30    1
