@<TRIPOS>MOLECULE
*****
 50 53 0 0 0
SMALL
GASTEIGER

@<TRIPOS>ATOM
     1 C         0.932177   -1.932391   -0.409531 C.3        1 UNL1     0.1889
     2 C         -0.172648   -0.868235   -0.648014 C.3        1 UNL1     0.1342
     3 C         -1.607458   -1.374777   -0.435407 C.3        1 UNL1     0.1174
     4 C         -1.789796   -2.835126   -0.856421 C.3        1 UNL1     0.1456
     5 C         -0.667759   -3.746602   -0.326696 C.3        1 UNL1     0.2326
     6 O         0.599224   -3.265126   -0.769191 O.3        1 UNL1     -0.3076
     7 O         -0.726528   -3.96077   1.095274 O.3        1 UNL1     -0.4605
     8 C         0.474439   -4.258996   1.713553 C.ar        1 UNL1     0.1310
     9 C         0.711757   -4.205735   3.091285 C.ar        1 UNL1     0.0226
     10 C         1.961359   -4.544201   3.624048 C.ar        1 UNL1     0.1343
     11 C         2.997913   -4.967457   2.793235 C.ar        1 UNL1     0.1007
     12 C         2.785486   -4.985336   1.41217 C.ar        1 UNL1     0.1389
     13 C         1.529736   -4.642426   0.876506 C.ar        1 UNL1     0.0229
     14 C         4.311474   -5.416924   3.309656 C.2        1 UNL1     0.1740
     15 C         5.225152   -6.046836   2.299729 C.3        1 UNL1     0.0520
     16 C         5.121053   -5.261251   0.999737 C.3        1 UNL1     0.1322
     17 O         3.767418   -5.281384   0.495419 O.3        1 UNL1     -0.4828
     18 C         5.751382   -3.868215   1.069448 C.ar        1 UNL1     -0.0067
     19 C         7.154871   -3.7401   1.024511 C.ar        1 UNL1     -0.0516
     20 C         7.765463   -2.485012   1.133579 C.ar        1 UNL1     -0.0198
     21 C         6.985682   -1.353764   1.294968 C.ar        1 UNL1     0.1169
     22 C         5.599872   -1.444113   1.309294 C.ar        1 UNL1     -0.0198
     23 C         4.988381   -2.697054   1.181722 C.ar        1 UNL1     -0.0516
     24 O         7.616989   -0.152925   1.435815 O.3        1 UNL1     -0.5068
     25 O         4.625942   -5.363359   4.49571 O.2        1 UNL1     -0.2917
     26 O         2.127982   -4.470139   4.976208 O.3        1 UNL1     -0.5058
     27 O         1.509296   -1.867861   0.884902 O.3        1 UNL1     -0.3648
     28 O         -0.077671   -0.409315   -2.009292 O.3        1 UNL1     -0.3841
     29 O         -2.039442   -1.126884   0.904022 O.3        1 UNL1     -0.3863
     30 O         -1.809529   -2.913521   -2.298349 O.3        1 UNL1     -0.3829
     31 H         1.757509   -1.683348   -1.085462 H        1 UNL1     0.0937
     32 H         0.0   0.0   0.0 H        1 UNL1     0.0671
     33 H         -2.272641   -0.775014   -1.072224 H        1 UNL1     0.0649
     34 H         -2.756842   -3.208613   -0.501837 H        1 UNL1     0.0683
     35 H         -0.841165   -4.702861   -0.835988 H        1 UNL1     0.1085
     36 H         -0.069356   -3.938481   3.794533 H        1 UNL1     0.0691
     37 H         1.390351   -4.663405   -0.202208 H        1 UNL1     0.0691
     38 H         4.901278   -7.083912   2.161509 H        1 UNL1     0.0385
     39 H         6.246031   -6.057315   2.696559 H        1 UNL1     0.0385
     40 H         5.7035   -5.806297   0.244622 H        1 UNL1     0.0789
     41 H         7.789395   -4.613822   0.90773 H        1 UNL1     0.0623
     42 H         8.849113   -2.400569   1.109445 H        1 UNL1     0.0654
     43 H         4.979217   -0.562964   1.42008 H        1 UNL1     0.0654
     44 H         3.903127   -2.729394   1.186491 H        1 UNL1     0.0623
     45 H         7.657567   0.276144   0.565774 H        1 UNL1     0.2921
     46 H         3.007405   -4.805001   5.212626 H        1 UNL1     0.2922
     47 H         2.053302   -1.072417   0.969667 H        1 UNL1     0.2126
     48 H         -0.836148   0.187952   -2.156658 H        1 UNL1     0.2101
     49 H         -1.932304   -1.929333   1.439177 H        1 UNL1     0.2100
     50 H         -2.294123   -2.132018   -2.636186 H        1 UNL1     0.2102
@<TRIPOS>BOND
     1     1     2    1
     2     1     6    1
     3     2     3    1
     4     3     4    1
     5     3    29    1
     6     3    33    1
     7     4     5    1
     8     5     6    1
     9     5     7    1
    10     5    35    1
    11     7     8    1
    12     8     9   ar
    13     8    13   ar
    14     9    10   ar
    15     9    36    1
    16    10    11   ar
    17    10    26    1
    18    11    12   ar
    19    11    14    1
    20    12    13   ar
    21    12    17    1
    22    13    37    1
    23    14    15    1
    24    14    25    2
    25    15    16    1
    26    15    38    1
    27    15    39    1
    28    16    17    1
    29    16    18    1
    30    16    40    1
    31    18    19   ar
    32    18    23   ar
    33    19    20   ar
    34    19    41    1
    35    20    21   ar
    36    20    42    1
    37    21    22   ar
    38    21    24    1
    39    22    23   ar
    40    22    43    1
    41    23    44    1
    42    24    45    1
    43    26    46    1
    44    27    47    1
    45    28    48    1
    46    29    49    1
    47    30    50    1
    48     1    31    1
    49     1    27    1
    50     2    32    1
    51     2    28    1
    52     4    34    1
    53     4    30    1
