@<TRIPOS>MOLECULE
*****
 50 53 0 0 0
SMALL
GASTEIGER

@<TRIPOS>ATOM
     1 C         -0.249232   -1.392844   1.663933 C.3        1 UNL1     0.1889
     2 C         -0.44257   -0.987971   0.177784 C.3        1 UNL1     0.1342
     3 C         -1.90313   -0.975889   -0.298748 C.3        1 UNL1     0.1174
     4 C         -2.750084   -2.070054   0.355919 C.3        1 UNL1     0.1456
     5 C         -2.538602   -2.148213   1.878919 C.3        1 UNL1     0.2326
     6 O         -1.15856   -2.36014   2.167776 O.3        1 UNL1     -0.3076
     7 O         -3.101613   -1.033175   2.593784 O.3        1 UNL1     -0.4605
     8 C         -3.558694   -1.300782   3.871669 C.ar        1 UNL1     0.1310
     9 C         -4.346562   -2.397512   4.237382 C.ar        1 UNL1     0.0226
     10 C         -4.745928   -2.591095   5.565137 C.ar        1 UNL1     0.1343
     11 C         -4.346814   -1.704627   6.564498 C.ar        1 UNL1     0.1007
     12 C         -3.594272   -0.583431   6.204797 C.ar        1 UNL1     0.1389
     13 C         -3.195056   -0.387583   4.869244 C.ar        1 UNL1     0.0229
     14 C         -4.669692   -1.906485   7.995986 C.2        1 UNL1     0.1740
     15 C         -3.975785   -0.983792   8.954464 C.3        1 UNL1     0.0520
     16 C         -3.949079   0.411601   8.346087 C.3        1 UNL1     0.1322
     17 O         -3.238453   0.409098   7.088282 O.3        1 UNL1     -0.4828
     18 C         -5.320602   1.089377   8.298466 C.ar        1 UNL1     -0.0067
     19 C         -5.754621   1.690788   7.099239 C.ar        1 UNL1     -0.0516
     20 C         -6.982583   2.360045   7.0347 C.ar        1 UNL1     -0.0198
     21 C         -7.780519   2.441035   8.161894 C.ar        1 UNL1     0.1169
     22 C         -7.395692   1.830091   9.348273 C.ar        1 UNL1     -0.0198
     23 C         -6.176246   1.144939   9.408052 C.ar        1 UNL1     -0.0516
     24 O         -8.952185   3.133419   8.071322 O.3        1 UNL1     -0.5068
     25 O         -5.39087   -2.812548   8.405177 O.2        1 UNL1     -0.2917
     26 O         -5.514749   -3.680193   5.855594 O.3        1 UNL1     -0.5058
     27 O         -0.125117   -0.284143   2.540382 O.3        1 UNL1     -0.3648
     28 O         0.269535   -1.928445   -0.647517 O.3        1 UNL1     -0.3841
     29 O         -2.473115   0.326476   -0.153501 O.3        1 UNL1     -0.3863
     30 O         -2.407357   -3.346464   -0.226323 O.3        1 UNL1     -0.3829
     31 H         0.721508   -1.896571   1.727185 H        1 UNL1     0.0937
     32 H         0.0   0.0   0.0 H        1 UNL1     0.0671
     33 H         -1.905001   -1.176345   -1.379273 H        1 UNL1     0.0649
     34 H         -3.811498   -1.896893   0.146595 H        1 UNL1     0.0683
     35 H         -3.070041   -3.061906   2.173226 H        1 UNL1     0.1085
     36 H         -4.642751   -3.152285   3.517166 H        1 UNL1     0.0691
     37 H         -2.610419   0.493906   4.614942 H        1 UNL1     0.0691
     38 H         -2.961413   -1.367301   9.107751 H        1 UNL1     0.0385
     39 H         -4.498908   -1.006077   9.916558 H        1 UNL1     0.0385
     40 H         -3.336751   1.040833   9.006119 H        1 UNL1     0.0789
     41 H         -5.142388   1.649044   6.203092 H        1 UNL1     0.0623
     42 H         -7.300723   2.82998   6.107359 H        1 UNL1     0.0654
     43 H         -8.019823   1.874489   10.232807 H        1 UNL1     0.0654
     44 H         -5.912027   0.670395   10.34818 H        1 UNL1     0.0623
     45 H         -8.747702   4.052719   7.835121 H        1 UNL1     0.2921
     46 H         -5.076834   -4.212511   6.53844 H        1 UNL1     0.2922
     47 H         0.599679   0.289224   2.254408 H        1 UNL1     0.2126
     48 H         1.211833   -1.860088   -0.400261 H        1 UNL1     0.2101
     49 H         -2.066651   0.937314   -0.788684 H        1 UNL1     0.2100
     50 H         -2.677304   -3.330574   -1.167912 H        1 UNL1     0.2102
@<TRIPOS>BOND
     1     1     2    1
     2     1     6    1
     3     2     3    1
     4     3     4    1
     5     3    29    1
     6     3    33    1
     7     4     5    1
     8     5     6    1
     9     5     7    1
    10     5    35    1
    11     7     8    1
    12     8     9   ar
    13     8    13   ar
    14     9    10   ar
    15     9    36    1
    16    10    11   ar
    17    10    26    1
    18    11    12   ar
    19    11    14    1
    20    12    13   ar
    21    12    17    1
    22    13    37    1
    23    14    15    1
    24    14    25    2
    25    15    16    1
    26    15    38    1
    27    15    39    1
    28    16    17    1
    29    16    18    1
    30    16    40    1
    31    18    19   ar
    32    18    23   ar
    33    19    20   ar
    34    19    41    1
    35    20    21   ar
    36    20    42    1
    37    21    22   ar
    38    21    24    1
    39    22    23   ar
    40    22    43    1
    41    23    44    1
    42    24    45    1
    43    26    46    1
    44    27    47    1
    45    28    48    1
    46    29    49    1
    47    30    50    1
    48     1    31    1
    49     1    27    1
    50     2    32    1
    51     2    28    1
    52     4    34    1
    53     4    30    1
