@<TRIPOS>MOLECULE
*****
 50 53 0 0 0
SMALL
GASTEIGER

@<TRIPOS>ATOM
     1 C         -1.03465   -1.461668   1.250532 C.3        1 UNL1     0.1889
     2 C         -0.759989   -0.782332   -0.118046 C.3        1 UNL1     0.1342
     3 C         -2.000153   -0.178223   -0.794442 C.3        1 UNL1     0.1174
     4 C         -3.271314   -0.991671   -0.538382 C.3        1 UNL1     0.1456
     5 C         -3.433918   -1.382245   0.941948 C.3        1 UNL1     0.2326
     6 O         -2.290261   -2.111998   1.380558 O.3        1 UNL1     -0.3076
     7 O         -3.757179   -0.269917   1.796085 O.3        1 UNL1     -0.4605
     8 C         -4.553019   -0.557188   2.890453 C.ar        1 UNL1     0.1310
     9 C         -5.856612   -1.061953   2.83425 C.ar        1 UNL1     0.0226
     10 C         -6.577032   -1.337449   4.002582 C.ar        1 UNL1     0.1343
     11 C         -6.002038   -1.137079   5.256805 C.ar        1 UNL1     0.1007
     12 C         -4.715989   -0.59478   5.325894 C.ar        1 UNL1     0.1389
     13 C         -3.9928   -0.31537   4.151008 C.ar        1 UNL1     0.0229
     14 C         -6.686548   -1.489873   6.522165 C.2        1 UNL1     0.1740
     15 C         -5.841067   -1.41774   7.759707 C.3        1 UNL1     0.0520
     16 C         -4.95398   -0.183951   7.665911 C.3        1 UNL1     0.1322
     17 O         -4.095639   -0.256491   6.506145 O.3        1 UNL1     -0.4828
     18 C         -5.7164   1.135472   7.809311 C.ar        1 UNL1     -0.0067
     19 C         -7.098637   1.10998   8.086768 C.ar        1 UNL1     -0.0516
     20 C         -7.835138   2.297139   8.177226 C.ar        1 UNL1     -0.0198
     21 C         -7.203908   3.513105   7.985388 C.ar        1 UNL1     0.1169
     22 C         -5.837518   3.572233   7.743894 C.ar        1 UNL1     -0.0198
     23 C         -5.097263   2.38612   7.671674 C.ar        1 UNL1     -0.0516
     24 O         -7.960876   4.646252   8.043509 O.3        1 UNL1     -0.5068
     25 O         -7.844739   -1.895317   6.574064 O.2        1 UNL1     -0.2917
     26 O         -7.844496   -1.827167   3.878905 O.3        1 UNL1     -0.5058
     27 O         -0.760987   -0.624128   2.362477 O.3        1 UNL1     -0.3648
     28 O         -0.21972   -1.768865   -1.016693 O.3        1 UNL1     -0.3841
     29 O         -2.146005   1.200358   -0.447493 O.3        1 UNL1     -0.3863
     30 O         -3.231453   -2.196002   -1.334427 O.3        1 UNL1     -0.3829
     31 H         -0.311791   -2.27942   1.344528 H        1 UNL1     0.0937
     32 H         0.0   0.0   0.0 H        1 UNL1     0.0671
     33 H         -1.828985   -0.18937   -1.879936 H        1 UNL1     0.0649
     34 H         -4.150512   -0.423094   -0.861076 H        1 UNL1     0.0683
     35 H         -4.277923   -2.083335   0.939373 H        1 UNL1     0.1085
     36 H         -6.338854   -1.291882   1.890483 H        1 UNL1     0.0691
     37 H         -2.993703   0.107432   4.231869 H        1 UNL1     0.0691
     38 H         -5.241207   -2.332979   7.804788 H        1 UNL1     0.0385
     39 H         -6.493495   -1.392719   8.63919 H        1 UNL1     0.0385
     40 H         -4.264342   -0.215401   8.520269 H        1 UNL1     0.0789
     41 H         -7.61914   0.167885   8.232317 H        1 UNL1     0.0623
     42 H         -8.902763   2.263765   8.379899 H        1 UNL1     0.0654
     43 H         -5.330336   4.519835   7.607043 H        1 UNL1     0.0654
     44 H         -4.029789   2.470129   7.491986 H        1 UNL1     0.0623
     45 H         -8.622769   4.609644   7.33409 H        1 UNL1     0.2921
     46 H         -7.969255   -2.562382   4.499634 H        1 UNL1     0.2922
     47 H         -1.543614   -0.102823   2.589622 H        1 UNL1     0.2126
     48 H         -0.652669   -1.62724   -1.880539 H        1 UNL1     0.2101
     49 H         -2.789806   1.293075   0.272727 H        1 UNL1     0.2100
     50 H         -2.984392   -2.938748   -0.745357 H        1 UNL1     0.2102
@<TRIPOS>BOND
     1     1     2    1
     2     1     6    1
     3     2     3    1
     4     3     4    1
     5     3    29    1
     6     3    33    1
     7     4     5    1
     8     5     6    1
     9     5     7    1
    10     5    35    1
    11     7     8    1
    12     8     9   ar
    13     8    13   ar
    14     9    10   ar
    15     9    36    1
    16    10    11   ar
    17    10    26    1
    18    11    12   ar
    19    11    14    1
    20    12    13   ar
    21    12    17    1
    22    13    37    1
    23    14    15    1
    24    14    25    2
    25    15    16    1
    26    15    38    1
    27    15    39    1
    28    16    17    1
    29    16    18    1
    30    16    40    1
    31    18    19   ar
    32    18    23   ar
    33    19    20   ar
    34    19    41    1
    35    20    21   ar
    36    20    42    1
    37    21    22   ar
    38    21    24    1
    39    22    23   ar
    40    22    43    1
    41    23    44    1
    42    24    45    1
    43    26    46    1
    44    27    47    1
    45    28    48    1
    46    29    49    1
    47    30    50    1
    48     1    31    1
    49     1    27    1
    50     2    32    1
    51     2    28    1
    52     4    34    1
    53     4    30    1
