@<TRIPOS>MOLECULE
*****
 50 53 0 0 0
SMALL
GASTEIGER

@<TRIPOS>ATOM
     1 C         0.83372   -1.570116   1.269035 C.3        1 UNL1     0.1889
     2 C         -0.057393   -0.31826   1.048322 C.3        1 UNL1     0.1342
     3 C         0.279422   0.87634   1.953833 C.3        1 UNL1     0.1174
     4 C         0.741571   0.451177   3.349817 C.3        1 UNL1     0.1456
     5 C         1.78725   -0.678018   3.306916 C.3        1 UNL1     0.2326
     6 O         1.261324   -1.801038   2.603286 O.3        1 UNL1     -0.3076
     7 O         3.070827   -0.252217   2.81453 O.3        1 UNL1     -0.4605
     8 C         3.527889   0.965012   3.286732 C.ar        1 UNL1     0.1310
     9 C         4.828394   1.224732   3.732302 C.ar        1 UNL1     0.0226
     10 C         5.20005   2.499034   4.177194 C.ar        1 UNL1     0.1343
     11 C         4.285743   3.551523   4.164896 C.ar        1 UNL1     0.1007
     12 C         2.972931   3.294515   3.760845 C.ar        1 UNL1     0.1389
     13 C         2.598773   2.012487   3.31605 C.ar        1 UNL1     0.0229
     14 C         4.64736   4.936873   4.544621 C.2        1 UNL1     0.1740
     15 C         3.607399   5.980505   4.260259 C.3        1 UNL1     0.0520
     16 C         2.240531   5.404855   4.604143 C.3        1 UNL1     0.1322
     17 O         1.964938   4.229233   3.811028 O.3        1 UNL1     -0.4828
     18 C         2.007608   5.225615   6.106257 C.ar        1 UNL1     -0.0067
     19 C         2.587068   4.125032   6.770453 C.ar        1 UNL1     -0.0516
     20 C         2.355313   3.905336   8.133533 C.ar        1 UNL1     -0.0198
     21 C         1.54188   4.772886   8.840293 C.ar        1 UNL1     0.1169
     22 C         0.984147   5.884286   8.221778 C.ar        1 UNL1     -0.0198
     23 C         1.230686   6.114505   6.863001 C.ar        1 UNL1     -0.0516
     24 O         1.30843   4.505689   10.1573 O.3        1 UNL1     -0.5068
     25 O         5.748392   5.250466   4.989449 O.2        1 UNL1     -0.2917
     26 O         6.483753   2.686087   4.599925 O.3        1 UNL1     -0.5058
     27 O         1.910096   -1.667044   0.3499 O.3        1 UNL1     -0.3648
     28 O         -1.426045   -0.68093   1.309029 O.3        1 UNL1     -0.3841
     29 O         1.202494   1.756616   1.309486 O.3        1 UNL1     -0.3863
     30 O         -0.400151   -0.002191   4.10917 O.3        1 UNL1     -0.3829
     31 H         0.209157   -2.441988   1.045788 H        1 UNL1     0.0937
     32 H         0.0   0.0   0.0 H        1 UNL1     0.0671
     33 H         -0.639091   1.464475   2.08856 H        1 UNL1     0.0649
     34 H         1.160204   1.311675   3.883381 H        1 UNL1     0.0683
     35 H         1.893366   -0.980278   4.356323 H        1 UNL1     0.1085
     36 H         5.600239   0.463133   3.713816 H        1 UNL1     0.0691
     37 H         1.570186   1.838018   3.007728 H        1 UNL1     0.0691
     38 H         3.673489   6.232686   3.196509 H        1 UNL1     0.0385
     39 H         3.835056   6.881436   4.840152 H        1 UNL1     0.0385
     40 H         1.489591   6.1376   4.279036 H        1 UNL1     0.0789
     41 H         3.221949   3.424461   6.235873 H        1 UNL1     0.0623
     42 H         2.7982   3.04641   8.631638 H        1 UNL1     0.0654
     43 H         0.357818   6.578401   8.769344 H        1 UNL1     0.0654
     44 H         0.787457   6.998418   6.414571 H        1 UNL1     0.0623
     45 H         0.951722   3.605508   10.229067 H        1 UNL1     0.2921
     46 H         7.055713   2.851835   3.833895 H        1 UNL1     0.2922
     47 H         1.589731   -1.545938   -0.554842 H        1 UNL1     0.2126
     48 H         -1.494077   -1.643312   1.157621 H        1 UNL1     0.2101
     49 H         2.105218   1.566015   1.61041 H        1 UNL1     0.2100
     50 H         -0.901203   0.787523   4.400738 H        1 UNL1     0.2102
@<TRIPOS>BOND
     1     1     2    1
     2     1     6    1
     3     2     3    1
     4     3     4    1
     5     3    29    1
     6     3    33    1
     7     4     5    1
     8     5     6    1
     9     5     7    1
    10     5    35    1
    11     7     8    1
    12     8     9   ar
    13     8    13   ar
    14     9    10   ar
    15     9    36    1
    16    10    11   ar
    17    10    26    1
    18    11    12   ar
    19    11    14    1
    20    12    13   ar
    21    12    17    1
    22    13    37    1
    23    14    15    1
    24    14    25    2
    25    15    16    1
    26    15    38    1
    27    15    39    1
    28    16    17    1
    29    16    18    1
    30    16    40    1
    31    18    19   ar
    32    18    23   ar
    33    19    20   ar
    34    19    41    1
    35    20    21   ar
    36    20    42    1
    37    21    22   ar
    38    21    24    1
    39    22    23   ar
    40    22    43    1
    41    23    44    1
    42    24    45    1
    43    26    46    1
    44    27    47    1
    45    28    48    1
    46    29    49    1
    47    30    50    1
    48     1    31    1
    49     1    27    1
    50     2    32    1
    51     2    28    1
    52     4    34    1
    53     4    30    1
