@<TRIPOS>MOLECULE
*****
 50 53 0 0 0
SMALL
GASTEIGER

@<TRIPOS>ATOM
     1 C         -0.388002   -1.353323   1.669963 C.3        1 UNL1     0.1889
     2 C         -0.491746   -0.965788   0.170298 C.3        1 UNL1     0.1342
     3 C         -1.925634   -0.901547   -0.377702 C.3        1 UNL1     0.1174
     4 C         -2.848557   -1.948779   0.250499 C.3        1 UNL1     0.1456
     5 C         -2.714788   -2.010053   1.783051 C.3        1 UNL1     0.2326
     6 O         -1.360519   -2.273769   2.142601 O.3        1 UNL1     -0.3076
     7 O         -3.264587   -0.860953   2.452835 O.3        1 UNL1     -0.4605
     8 C         -3.794467   -1.088148   3.710268 C.ar        1 UNL1     0.1310
     9 C         -4.644788   -2.145116   4.052428 C.ar        1 UNL1     0.0226
     10 C         -5.116392   -2.299921   5.361446 C.ar        1 UNL1     0.1343
     11 C         -4.729612   -1.414239   6.36634 C.ar        1 UNL1     0.1007
     12 C         -3.913808   -0.331269   6.028076 C.ar        1 UNL1     0.1389
     13 C         -3.441877   -0.174325   4.711231 C.ar        1 UNL1     0.0229
     14 C         -5.130309   -1.578752   7.782861 C.2        1 UNL1     0.1740
     15 C         -4.445826   -0.669758   8.761003 C.3        1 UNL1     0.0520
     16 C         -4.330632   0.713034   8.134444 C.3        1 UNL1     0.1322
     17 O         -3.560099   0.660233   6.913559 O.3        1 UNL1     -0.4828
     18 C         -5.668406   1.446086   8.009072 C.ar        1 UNL1     -0.0067
     19 C         -6.016308   2.04733   6.782008 C.ar        1 UNL1     -0.0516
     20 C         -7.210339   2.765698   6.647106 C.ar        1 UNL1     -0.0198
     21 C         -8.059526   2.896009   7.731415 C.ar        1 UNL1     0.1169
     22 C         -7.76047   2.287084   8.94328 C.ar        1 UNL1     -0.0198
     23 C         -6.575365   1.553119   9.073198 C.ar        1 UNL1     -0.0516
     24 O         -9.195109   3.634777   7.573071 O.3        1 UNL1     -0.5068
     25 O         -5.908169   -2.447278   8.16897 O.2        1 UNL1     -0.2917
     26 O         -5.943703   -3.351302   5.629284 O.3        1 UNL1     -0.5058
     27 O         -0.260209   -0.236145   2.535046 O.3        1 UNL1     -0.3648
     28 O         0.219529   -1.948487   -0.605004 O.3        1 UNL1     -0.3841
     29 O         -2.446858   0.425438   -0.279884 O.3        1 UNL1     -0.3863
     30 O         -2.531801   -3.247797   -0.29531 O.3        1 UNL1     -0.3829
     31 H         0.556528   -1.895473   1.788347 H        1 UNL1     0.0937
     32 H         0.0   0.0   0.0 H        1 UNL1     0.0671
     33 H         -1.883412   -1.119831   -1.453941 H        1 UNL1     0.0649
     34 H         -3.890346   -1.735581   -0.013363 H        1 UNL1     0.0683
     35 H         -3.297765   -2.896024   2.064249 H        1 UNL1     0.1085
     36 H         -4.936954   -2.898853   3.329489 H        1 UNL1     0.0691
     37 H         -2.808881   0.677874   4.473397 H        1 UNL1     0.0691
     38 H         -3.457224   -1.092304   8.969923 H        1 UNL1     0.0385
     39 H         -5.015834   -0.65439   9.696222 H        1 UNL1     0.0385
     40 H         -3.725334   1.327275   8.814769 H        1 UNL1     0.0789
     41 H         -5.362331   1.967268   5.918553 H        1 UNL1     0.0623
     42 H         -7.461718   3.234777   5.699063 H        1 UNL1     0.0654
     43 H         -8.425626   2.37012   9.794503 H        1 UNL1     0.0654
     44 H         -6.378624   1.081847   10.031342 H        1 UNL1     0.0623
     45 H         -8.940675   4.541305   7.336034 H        1 UNL1     0.2921
     46 H         -5.562517   -3.889861   6.340665 H        1 UNL1     0.2922
     47 H         0.501042   0.302012   2.2767 H        1 UNL1     0.2126
     48 H         1.150738   -1.914865   -0.312681 H        1 UNL1     0.2101
     49 H         -1.984861   1.008252   -0.903326 H        1 UNL1     0.2100
     50 H         -2.754776   -3.236581   -1.24918 H        1 UNL1     0.2102
@<TRIPOS>BOND
     1     1     2    1
     2     1     6    1
     3     2     3    1
     4     3     4    1
     5     3    29    1
     6     3    33    1
     7     4     5    1
     8     5     6    1
     9     5     7    1
    10     5    35    1
    11     7     8    1
    12     8     9   ar
    13     8    13   ar
    14     9    10   ar
    15     9    36    1
    16    10    11   ar
    17    10    26    1
    18    11    12   ar
    19    11    14    1
    20    12    13   ar
    21    12    17    1
    22    13    37    1
    23    14    15    1
    24    14    25    2
    25    15    16    1
    26    15    38    1
    27    15    39    1
    28    16    17    1
    29    16    18    1
    30    16    40    1
    31    18    19   ar
    32    18    23   ar
    33    19    20   ar
    34    19    41    1
    35    20    21   ar
    36    20    42    1
    37    21    22   ar
    38    21    24    1
    39    22    23   ar
    40    22    43    1
    41    23    44    1
    42    24    45    1
    43    26    46    1
    44    27    47    1
    45    28    48    1
    46    29    49    1
    47    30    50    1
    48     1    31    1
    49     1    27    1
    50     2    32    1
    51     2    28    1
    52     4    34    1
    53     4    30    1
