@<TRIPOS>MOLECULE
*****
 50 53 0 0 0
SMALL
GASTEIGER

@<TRIPOS>ATOM
     1 C         1.658536   1.013151   0.996788 C.3        1 UNL1     0.1889
     2 C         0.215051   0.44216   0.980719 C.3        1 UNL1     0.1342
     3 C         -0.881918   1.462328   1.321866 C.3        1 UNL1     0.1174
     4 C         -0.43289   2.490873   2.362821 C.3        1 UNL1     0.1456
     5 C         0.957934   3.074531   2.054089 C.3        1 UNL1     0.2326
     6 O         1.916518   2.023191   1.960976 O.3        1 UNL1     -0.3076
     7 O         0.970471   3.954231   0.915103 O.3        1 UNL1     -0.4605
     8 C         2.217945   4.36057   0.47667 C.ar        1 UNL1     0.1310
     9 C         2.709099   5.669452   0.530502 C.ar        1 UNL1     0.0226
     10 C         3.996474   5.978664   0.075578 C.ar        1 UNL1     0.1343
     11 C         4.83355   4.981251   -0.422731 C.ar        1 UNL1     0.1007
     12 C         4.339415   3.677699   -0.519521 C.ar        1 UNL1     0.1389
     13 C         3.043978   3.367521   -0.064479 C.ar        1 UNL1     0.0229
     14 C         6.231949   5.237084   -0.838883 C.2        1 UNL1     0.1740
     15 C         7.054304   4.017705   -1.136192 C.3        1 UNL1     0.0520
     16 C         6.182957   3.020278   -1.887092 C.3        1 UNL1     0.1322
     17 O         5.037517   2.640339   -1.092936 O.3        1 UNL1     -0.4828
     18 C         5.848821   3.448862   -3.317964 C.ar        1 UNL1     -0.0067
     19 C         6.228042   2.621689   -4.395085 C.ar        1 UNL1     -0.0516
     20 C         5.98002   3.006353   -5.718142 C.ar        1 UNL1     -0.0198
     21 C         5.361506   4.216431   -5.976946 C.ar        1 UNL1     0.1169
     22 C         4.946265   5.037203   -4.936394 C.ar        1 UNL1     -0.0198
     23 C         5.177588   4.644255   -3.612711 C.ar        1 UNL1     -0.0516
     24 O         5.170556   4.574928   -7.279028 O.3        1 UNL1     -0.5068
     25 O         6.734176   6.357506   -0.869029 O.2        1 UNL1     -0.2917
     26 O         4.414942   7.274891   0.154731 O.3        1 UNL1     -0.5058
     27 O         2.135214   1.381303   -0.287747 O.3        1 UNL1     -0.3648
     28 O         0.132554   -0.616713   1.95267 O.3        1 UNL1     -0.3841
     29 O         -1.39967   2.066211   0.134689 O.3        1 UNL1     -0.3863
     30 O         -0.394677   1.863357   3.662996 O.3        1 UNL1     -0.3829
     31 H         2.316187   0.192458   1.303443 H        1 UNL1     0.0937
     32 H         -0.0   0.0   0.0 H        1 UNL1     0.0671
     33 H         -1.725915   0.91277   1.761612 H        1 UNL1     0.0649
     34 H         -1.162326   3.306257   2.42175 H        1 UNL1     0.0683
     35 H         1.206676   3.654377   2.951744 H        1 UNL1     0.1085
     36 H         2.128345   6.479271   0.958331 H        1 UNL1     0.0691
     37 H         2.682448   2.345196   -0.151888 H        1 UNL1     0.0691
     38 H         7.392505   3.605043   -0.179711 H        1 UNL1     0.0385
     39 H         7.93759   4.312358   -1.71305 H        1 UNL1     0.0385
     40 H         6.765273   2.094568   -1.989507 H        1 UNL1     0.0789
     41 H         6.723185   1.671247   -4.218605 H        1 UNL1     0.0623
     42 H         6.28793   2.365276   -6.54047 H        1 UNL1     0.0654
     43 H         4.447557   5.97992   -5.127403 H        1 UNL1     0.0654
     44 H         4.830345   5.305123   -2.824344 H        1 UNL1     0.0623
     45 H         6.039202   4.658285   -7.704731 H        1 UNL1     0.2921
     46 H         4.782513   7.548973   -0.700361 H        1 UNL1     0.2922
     47 H         3.097614   1.478334   -0.272592 H        1 UNL1     0.2126
     48 H         0.657794   -1.361   1.600689 H        1 UNL1     0.2101
     49 H         -0.975948   2.927323   -0.009325 H        1 UNL1     0.2100
     50 H         -0.765792   0.961164   3.573373 H        1 UNL1     0.2102
@<TRIPOS>BOND
     1     1     2    1
     2     1     6    1
     3     2     3    1
     4     3     4    1
     5     3    29    1
     6     3    33    1
     7     4     5    1
     8     5     6    1
     9     5     7    1
    10     5    35    1
    11     7     8    1
    12     8     9   ar
    13     8    13   ar
    14     9    10   ar
    15     9    36    1
    16    10    11   ar
    17    10    26    1
    18    11    12   ar
    19    11    14    1
    20    12    13   ar
    21    12    17    1
    22    13    37    1
    23    14    15    1
    24    14    25    2
    25    15    16    1
    26    15    38    1
    27    15    39    1
    28    16    17    1
    29    16    18    1
    30    16    40    1
    31    18    19   ar
    32    18    23   ar
    33    19    20   ar
    34    19    41    1
    35    20    21   ar
    36    20    42    1
    37    21    22   ar
    38    21    24    1
    39    22    23   ar
    40    22    43    1
    41    23    44    1
    42    24    45    1
    43    26    46    1
    44    27    47    1
    45    28    48    1
    46    29    49    1
    47    30    50    1
    48     1    31    1
    49     1    27    1
    50     2    32    1
    51     2    28    1
    52     4    34    1
    53     4    30    1
