@<TRIPOS>MOLECULE
*****
 50 53 0 0 0
SMALL
GASTEIGER

@<TRIPOS>ATOM
     1 C         0.905681   -1.90059   -0.581639 C.3        1 UNL1     0.1889
     2 C         -0.263079   -0.879046   -0.601356 C.3        1 UNL1     0.1342
     3 C         -1.609385   -1.435473   -0.113182 C.3        1 UNL1     0.1174
     4 C         -1.815884   -2.904769   -0.489538 C.3        1 UNL1     0.1456
     5 C         -0.579274   -3.770796   -0.187615 C.3        1 UNL1     0.2326
     6 O         0.558752   -3.247322   -0.868601 O.3        1 UNL1     -0.3076
     7 O         -0.352429   -3.975622   1.218766 O.3        1 UNL1     -0.4605
     8 C         -1.319294   -3.469503   2.068792 C.ar        1 UNL1     0.1310
     9 C         -2.389538   -2.654369   1.684819 C.ar        1 UNL1     0.0226
     10 C         -3.329114   -2.205132   2.620386 C.ar        1 UNL1     0.1343
     11 C         -3.234535   -2.580072   3.959907 C.ar        1 UNL1     0.1007
     12 C         -2.147223   -3.360019   4.362673 C.ar        1 UNL1     0.1389
     13 C         -1.201148   -3.809415   3.422239 C.ar        1 UNL1     0.0229
     14 C         -4.245523   -2.203439   4.974896 C.2        1 UNL1     0.1740
     15 C         -4.106963   -2.874907   6.309618 C.3        1 UNL1     0.0520
     16 C         -2.627795   -2.942143   6.663874 C.3        1 UNL1     0.1322
     17 O         -1.896908   -3.697272   5.672585 O.3        1 UNL1     -0.4828
     18 C         -2.013584   -1.582441   7.005457 C.ar        1 UNL1     -0.0067
     19 C         -1.770529   -0.653299   5.973066 C.ar        1 UNL1     -0.0516
     20 C         -1.166551   0.580225   6.244344 C.ar        1 UNL1     -0.0198
     21 C         -0.795106   0.892761   7.539789 C.ar        1 UNL1     0.1169
     22 C         -1.051725   0.012388   8.582828 C.ar        1 UNL1     -0.0198
     23 C         -1.672444   -1.213511   8.31462 C.ar        1 UNL1     -0.0516
     24 O         -0.174983   2.087497   7.759914 O.3        1 UNL1     -0.5068
     25 O         -5.191767   -1.455952   4.741722 O.2        1 UNL1     -0.2917
     26 O         -4.348655   -1.41183   2.181304 O.3        1 UNL1     -0.5058
     27 O         1.720705   -1.804913   0.575672 O.3        1 UNL1     -0.3648
     28 O         -0.451697   -0.427843   -1.95544 O.3        1 UNL1     -0.3841
     29 O         -1.781539   -1.192718   1.284518 O.3        1 UNL1     -0.3863
     30 O         -2.112719   -2.995305   -1.899992 O.3        1 UNL1     -0.3829
     31 H         1.574013   -1.627231   -1.405463 H        1 UNL1     0.0937
     32 H         0.0   0.0   0.0 H        1 UNL1     0.0671
     33 H         -2.40746   -0.865264   -0.608822 H        1 UNL1     0.0649
     34 H         -2.681003   -3.310173   0.046761 H        1 UNL1     0.0683
     35 H         -0.812859   -4.736728   -0.652687 H        1 UNL1     0.1085
     36 H         -2.550001   -2.37405   0.649545 H        1 UNL1     0.0691
     37 H         -0.363196   -4.414583   3.761506 H        1 UNL1     0.0691
     38 H         -4.538119   -3.87789   6.222117 H        1 UNL1     0.0385
     39 H         -4.686004   -2.317404   7.053715 H        1 UNL1     0.0385
     40 H         -2.541638   -3.538838   7.582053 H        1 UNL1     0.0789
     41 H         -2.044454   -0.878645   4.946501 H        1 UNL1     0.0623
     42 H         -0.973598   1.283307   5.437835 H        1 UNL1     0.0654
     43 H         -0.778632   0.253386   9.603245 H        1 UNL1     0.0654
     44 H         -1.867308   -1.872626   9.155121 H        1 UNL1     0.0623
     45 H         -0.248921   2.62443   6.954338 H        1 UNL1     0.2921
     46 H         -5.070435   -1.424212   2.829603 H        1 UNL1     0.2922
     47 H         2.194495   -2.635709   0.721136 H        1 UNL1     0.2126
     48 H         0.395926   -0.035035   -2.239992 H        1 UNL1     0.2101
     49 H         -2.722194   -1.060276   1.483066 H        1 UNL1     0.2100
     50 H         -1.295658   -2.777495   -2.394646 H        1 UNL1     0.2102
@<TRIPOS>BOND
     1     1     2    1
     2     1     6    1
     3     2     3    1
     4     3     4    1
     5     3    29    1
     6     3    33    1
     7     4     5    1
     8     5     6    1
     9     5     7    1
    10     5    35    1
    11     7     8    1
    12     8     9   ar
    13     8    13   ar
    14     9    10   ar
    15     9    36    1
    16    10    11   ar
    17    10    26    1
    18    11    12   ar
    19    11    14    1
    20    12    13   ar
    21    12    17    1
    22    13    37    1
    23    14    15    1
    24    14    25    2
    25    15    16    1
    26    15    38    1
    27    15    39    1
    28    16    17    1
    29    16    18    1
    30    16    40    1
    31    18    19   ar
    32    18    23   ar
    33    19    20   ar
    34    19    41    1
    35    20    21   ar
    36    20    42    1
    37    21    22   ar
    38    21    24    1
    39    22    23   ar
    40    22    43    1
    41    23    44    1
    42    24    45    1
    43    26    46    1
    44    27    47    1
    45    28    48    1
    46    29    49    1
    47    30    50    1
    48     1    31    1
    49     1    27    1
    50     2    32    1
    51     2    28    1
    52     4    34    1
    53     4    30    1
