@<TRIPOS>MOLECULE
*****
 50 53 0 0 0
SMALL
GASTEIGER

@<TRIPOS>ATOM
     1 C         -0.621275   -1.02715   1.82477 C.3        1 UNL1     0.1889
     2 C         -0.914656   -0.13125   0.591388 C.3        1 UNL1     0.1342
     3 C         -1.497325   1.250313   0.926416 C.3        1 UNL1     0.1174
     4 C         -2.425722   1.223708   2.143169 C.3        1 UNL1     0.1456
     5 C         -1.826999   0.439958   3.325383 C.3        1 UNL1     0.2326
     6 O         -1.516247   -0.890819   2.918769 O.3        1 UNL1     -0.3076
     7 O         -0.721779   1.11125   3.957187 O.3        1 UNL1     -0.4605
     8 C         0.413415   1.270641   3.18294 C.ar        1 UNL1     0.1310
     9 C         1.001591   0.277013   2.392971 C.ar        1 UNL1     0.0226
     10 C         2.144283   0.541949   1.628794 C.ar        1 UNL1     0.1343
     11 C         2.713192   1.814764   1.617531 C.ar        1 UNL1     0.1007
     12 C         2.159003   2.804118   2.434132 C.ar        1 UNL1     0.1389
     13 C         1.011595   2.536752   3.204457 C.ar        1 UNL1     0.0229
     14 C         3.87013   2.172212   0.764372 C.2        1 UNL1     0.1740
     15 C         4.20948   3.63281   0.70922 C.3        1 UNL1     0.0520
     16 C         4.056508   4.216097   2.107195 C.3        1 UNL1     0.1322
     17 O         2.701347   4.05953   2.582688 O.3        1 UNL1     -0.4828
     18 C         5.131933   3.74871   3.09093 C.ar        1 UNL1     -0.0067
     19 C         5.160198   4.287642   4.393607 C.ar        1 UNL1     -0.0516
     20 C         6.158459   3.917385   5.302644 C.ar        1 UNL1     -0.0198
     21 C         7.136179   3.016736   4.919601 C.ar        1 UNL1     0.1169
     22 C         7.115625   2.443424   3.654796 C.ar        1 UNL1     -0.0198
     23 C         6.106802   2.799516   2.751729 C.ar        1 UNL1     -0.0516
     24 O         8.114065   2.708751   5.819203 O.3        1 UNL1     -0.5068
     25 O         4.478302   1.358372   0.074244 O.2        1 UNL1     -0.2917
     26 O         2.669574   -0.470999   0.880737 O.3        1 UNL1     -0.5058
     27 O         0.732473   -0.982389   2.246848 O.3        1 UNL1     -0.3648
     28 O         -1.870301   -0.807467   -0.246574 O.3        1 UNL1     -0.3841
     29 O         -0.457941   2.223897   1.044518 O.3        1 UNL1     -0.3863
     30 O         -3.679749   0.612916   1.768951 O.3        1 UNL1     -0.3829
     31 H         -0.768652   -2.063252   1.500963 H        1 UNL1     0.0937
     32 H         0.0   0.0   0.0 H        1 UNL1     0.0671
     33 H         -2.104954   1.574632   0.070072 H        1 UNL1     0.0649
     34 H         -2.650709   2.246753   2.464357 H        1 UNL1     0.0683
     35 H         -2.654656   0.369382   4.042239 H        1 UNL1     0.1085
     36 H         0.57462   -0.716862   2.31532 H        1 UNL1     0.0691
     37 H         0.600136   3.323802   3.832745 H        1 UNL1     0.0691
     38 H         3.517353   4.107271   0.005391 H        1 UNL1     0.0385
     39 H         5.226736   3.750529   0.32049 H        1 UNL1     0.0385
     40 H         4.19357   5.302548   2.021417 H        1 UNL1     0.0789
     41 H         4.409359   5.003366   4.715525 H        1 UNL1     0.0623
     42 H         6.176369   4.348993   6.300344 H        1 UNL1     0.0654
     43 H         7.867713   1.725719   3.349551 H        1 UNL1     0.0654
     44 H         6.115317   2.324029   1.775674 H        1 UNL1     0.0623
     45 H         7.812179   1.957544   6.35518 H        1 UNL1     0.2921
     46 H         3.599577   -0.603705   1.12342 H        1 UNL1     0.2922
     47 H         0.833827   -1.435984   3.095282 H        1 UNL1     0.2126
     48 H         -1.425712   -0.973576   -1.100085 H        1 UNL1     0.2101
     49 H         -0.811264   3.037812   1.437583 H        1 UNL1     0.2100
     50 H         -3.498711   -0.035824   1.057563 H        1 UNL1     0.2102
@<TRIPOS>BOND
     1     1     2    1
     2     1     6    1
     3     2     3    1
     4     3     4    1
     5     3    29    1
     6     3    33    1
     7     4     5    1
     8     5     6    1
     9     5     7    1
    10     5    35    1
    11     7     8    1
    12     8     9   ar
    13     8    13   ar
    14     9    10   ar
    15     9    36    1
    16    10    11   ar
    17    10    26    1
    18    11    12   ar
    19    11    14    1
    20    12    13   ar
    21    12    17    1
    22    13    37    1
    23    14    15    1
    24    14    25    2
    25    15    16    1
    26    15    38    1
    27    15    39    1
    28    16    17    1
    29    16    18    1
    30    16    40    1
    31    18    19   ar
    32    18    23   ar
    33    19    20   ar
    34    19    41    1
    35    20    21   ar
    36    20    42    1
    37    21    22   ar
    38    21    24    1
    39    22    23   ar
    40    22    43    1
    41    23    44    1
    42    24    45    1
    43    26    46    1
    44    27    47    1
    45    28    48    1
    46    29    49    1
    47    30    50    1
    48     1    31    1
    49     1    27    1
    50     2    32    1
    51     2    28    1
    52     4    34    1
    53     4    30    1
