@<TRIPOS>MOLECULE
*****
 50 53 0 0 0
SMALL
GASTEIGER

@<TRIPOS>ATOM
     1 C         -2.166745   -0.160246   -0.22437 C.3        1 UNL1     0.1889
     2 C         -0.745903   0.084125   -0.800071 C.3        1 UNL1     0.1342
     3 C         -0.566147   1.433196   -1.512924 C.3        1 UNL1     0.1174
     4 C         -1.8261   1.884363   -2.255948 C.3        1 UNL1     0.1456
     5 C         -3.099082   1.737279   -1.402574 C.3        1 UNL1     0.2326
     6 O         -3.242877   0.385317   -0.973166 O.3        1 UNL1     -0.3076
     7 O         -3.177984   2.685415   -0.322698 O.3        1 UNL1     -0.4605
     8 C         -4.450475   3.09636   0.031446 C.ar        1 UNL1     0.1310
     9 C         -5.455917   3.480847   -0.862174 C.ar        1 UNL1     0.0226
     10 C         -6.72192   3.865899   -0.405147 C.ar        1 UNL1     0.1343
     11 C         -7.020933   3.852961   0.956567 C.ar        1 UNL1     0.1007
     12 C         -6.012482   3.510328   1.861229 C.ar        1 UNL1     0.1389
     13 C         -4.7388   3.125741   1.401601 C.ar        1 UNL1     0.0229
     14 C         -8.36664   4.169454   1.488601 C.2        1 UNL1     0.1740
     15 C         -8.569707   3.890105   2.948833 C.3        1 UNL1     0.0520
     16 C         -7.312181   4.307637   3.698667 C.3        1 UNL1     0.1322
     17 O         -6.164516   3.567602   3.227198 O.3        1 UNL1     -0.4828
     18 C         -7.107334   5.823127   3.762338 C.ar        1 UNL1     -0.0067
     19 C         -6.084773   6.350093   4.577745 C.ar        1 UNL1     -0.0516
     20 C         -5.90087   7.732936   4.695589 C.ar        1 UNL1     -0.0198
     21 C         -6.735713   8.597501   4.010467 C.ar        1 UNL1     0.1169
     22 C         -7.73024   8.108309   3.173541 C.ar        1 UNL1     -0.0198
     23 C         -7.902544   6.725259   3.041094 C.ar        1 UNL1     -0.0516
     24 O         -6.550604   9.938248   4.179383 O.3        1 UNL1     -0.5068
     25 O         -9.296497   4.559198   0.787208 O.2        1 UNL1     -0.2917
     26 O         -7.657914   4.230782   -1.328381 O.3        1 UNL1     -0.5058
     27 O         -2.278646   0.149781   1.155539 O.3        1 UNL1     -0.3648
     28 O         -0.458896   -0.949396   -1.760366 O.3        1 UNL1     -0.3841
     29 O         -0.072977   2.42312   -0.607956 O.3        1 UNL1     -0.3863
     30 O         -1.977428   1.09403   -3.455182 O.3        1 UNL1     -0.3829
     31 H         -2.342527   -1.24043   -0.273174 H        1 UNL1     0.0937
     32 H         0.0   0.0   0.0 H        1 UNL1     0.0671
     33 H         0.221919   1.310585   -2.268992 H        1 UNL1     0.0649
     34 H         -1.720688   2.928335   -2.571244 H        1 UNL1     0.0683
     35 H         -3.915191   1.936252   -2.108446 H        1 UNL1     0.1085
     36 H         -5.303757   3.458505   -1.935705 H        1 UNL1     0.0691
     37 H         -3.970673   2.864588   2.126357 H        1 UNL1     0.0691
     38 H         -8.756352   2.816411   3.057792 H        1 UNL1     0.0385
     39 H         -9.45757   4.428709   3.297235 H        1 UNL1     0.0385
     40 H         -7.435914   3.987045   4.741946 H        1 UNL1     0.0789
     41 H         -5.42209   5.692612   5.132922 H        1 UNL1     0.0623
     42 H         -5.11641   8.127188   5.336837 H        1 UNL1     0.0654
     43 H         -8.379943   8.776257   2.620692 H        1 UNL1     0.0654
     44 H         -8.682563   6.377979   2.370414 H        1 UNL1     0.0623
     45 H         -6.057946   10.078312   5.004239 H        1 UNL1     0.2921
     46 H         -8.528305   3.900968   -1.054419 H        1 UNL1     0.2922
     47 H         -3.205555   0.121254   1.431014 H        1 UNL1     0.2126
     48 H         -0.306817   -1.7692   -1.251911 H        1 UNL1     0.2101
     49 H         -0.807661   2.965894   -0.280192 H        1 UNL1     0.2100
     50 H         -1.244732   1.325114   -4.063023 H        1 UNL1     0.2102
@<TRIPOS>BOND
     1     1     2    1
     2     1     6    1
     3     2     3    1
     4     3     4    1
     5     3    29    1
     6     3    33    1
     7     4     5    1
     8     5     6    1
     9     5     7    1
    10     5    35    1
    11     7     8    1
    12     8     9   ar
    13     8    13   ar
    14     9    10   ar
    15     9    36    1
    16    10    11   ar
    17    10    26    1
    18    11    12   ar
    19    11    14    1
    20    12    13   ar
    21    12    17    1
    22    13    37    1
    23    14    15    1
    24    14    25    2
    25    15    16    1
    26    15    38    1
    27    15    39    1
    28    16    17    1
    29    16    18    1
    30    16    40    1
    31    18    19   ar
    32    18    23   ar
    33    19    20   ar
    34    19    41    1
    35    20    21   ar
    36    20    42    1
    37    21    22   ar
    38    21    24    1
    39    22    23   ar
    40    22    43    1
    41    23    44    1
    42    24    45    1
    43    26    46    1
    44    27    47    1
    45    28    48    1
    46    29    49    1
    47    30    50    1
    48     1    31    1
    49     1    27    1
    50     2    32    1
    51     2    28    1
    52     4    34    1
    53     4    30    1
