@<TRIPOS>MOLECULE
*****
 50 53 0 0 0
SMALL
GASTEIGER

@<TRIPOS>ATOM
     1 C         -0.390873   -1.380864   1.646583 C.3        1 UNL1     0.1889
     2 C         -0.492366   -0.968291   0.153458 C.3        1 UNL1     0.1342
     3 C         -1.92546   -0.894306   -0.395388 C.3        1 UNL1     0.1174
     4 C         -2.849675   -1.951497   0.213948 C.3        1 UNL1     0.1456
     5 C         -2.718075   -2.038417   1.745447 C.3        1 UNL1     0.2326
     6 O         -1.364414   -2.308669   2.102427 O.3        1 UNL1     -0.3076
     7 O         -3.268355   -0.900434   2.433565 O.3        1 UNL1     -0.4605
     8 C         -3.121308   -0.894362   3.809017 C.ar        1 UNL1     0.1310
     9 C         -2.45217   -1.869271   4.556753 C.ar        1 UNL1     0.0226
     10 C         -2.342072   -1.764875   5.948472 C.ar        1 UNL1     0.1343
     11 C         -2.878417   -0.66972   6.624349 C.ar        1 UNL1     0.1007
     12 C         -3.584388   0.289336   5.893185 C.ar        1 UNL1     0.1389
     13 C         -3.697234   0.182784   4.494134 C.ar        1 UNL1     0.0229
     14 C         -2.718847   -0.466512   8.082909 C.2        1 UNL1     0.1740
     15 C         -3.162384   0.86857   8.60481 C.3        1 UNL1     0.0520
     16 C         -4.451601   1.259105   7.895332 C.3        1 UNL1     0.1322
     17 O         -4.244331   1.350341   6.468522 O.3        1 UNL1     -0.4828
     18 C         -5.661409   0.417233   8.308052 C.ar        1 UNL1     -0.0067
     19 C         -6.204193   0.571628   9.600245 C.ar        1 UNL1     -0.0516
     20 C         -7.280373   -0.216036   10.026135 C.ar        1 UNL1     -0.0198
     21 C         -7.816706   -1.164546   9.173784 C.ar        1 UNL1     0.1169
     22 C         -7.325569   -1.3169   7.883663 C.ar        1 UNL1     -0.0198
     23 C         -6.261387   -0.51661   7.451104 C.ar        1 UNL1     -0.0516
     24 O         -8.839481   -1.939245   9.636574 O.3        1 UNL1     -0.5068
     25 O         -2.187766   -1.287766   8.825862 O.2        1 UNL1     -0.2917
     26 O         -1.677749   -2.750068   6.619035 O.3        1 UNL1     -0.5058
     27 O         -0.263848   -0.278345   2.530383 O.3        1 UNL1     -0.3648
     28 O         0.219605   -1.938202   -0.63716 O.3        1 UNL1     -0.3841
     29 O         -2.446295   0.431079   -0.276144 O.3        1 UNL1     -0.3863
     30 O         -2.53267   -3.24135   -0.353041 O.3        1 UNL1     -0.3829
     31 H         0.553276   -1.925312   1.75721 H        1 UNL1     0.0937
     32 H         0.0   0.0   0.0 H        1 UNL1     0.0671
     33 H         -1.881819   -1.094602   -1.475063 H        1 UNL1     0.0649
     34 H         -3.89101   -1.733486   -0.047766 H        1 UNL1     0.0683
     35 H         -3.301795   -2.928717   2.010995 H        1 UNL1     0.1085
     36 H         -1.965534   -2.715668   4.084611 H        1 UNL1     0.0691
     37 H         -4.25295   0.942105   3.948146 H        1 UNL1     0.0691
     38 H         -2.363245   1.587848   8.39614 H        1 UNL1     0.0385
     39 H         -3.290328   0.804949   9.690795 H        1 UNL1     0.0385
     40 H         -4.692813   2.285324   8.203895 H        1 UNL1     0.0789
     41 H         -5.795073   1.302832   10.291339 H        1 UNL1     0.0623
     42 H         -7.682364   -0.095745   11.029103 H        1 UNL1     0.0654
     43 H         -7.747936   -2.046234   7.202789 H        1 UNL1     0.0654
     44 H         -5.909745   -0.655242   6.433276 H        1 UNL1     0.0623
     45 H         -8.587736   -2.292715   10.505136 H        1 UNL1     0.2921
     46 H         -1.481673   -2.451803   7.521256 H        1 UNL1     0.2922
     47 H         0.462408   0.295041   2.248179 H        1 UNL1     0.2126
     48 H         -0.454889   -2.465392   -1.107119 H        1 UNL1     0.2101
     49 H         -3.296297   0.494616   -0.740099 H        1 UNL1     0.2100
     50 H         -2.005846   -3.739162   0.306013 H        1 UNL1     0.2102
@<TRIPOS>BOND
     1     1     2    1
     2     1     6    1
     3     2     3    1
     4     3     4    1
     5     3    29    1
     6     3    33    1
     7     4     5    1
     8     5     6    1
     9     5     7    1
    10     5    35    1
    11     7     8    1
    12     8     9   ar
    13     8    13   ar
    14     9    10   ar
    15     9    36    1
    16    10    11   ar
    17    10    26    1
    18    11    12   ar
    19    11    14    1
    20    12    13   ar
    21    12    17    1
    22    13    37    1
    23    14    15    1
    24    14    25    2
    25    15    16    1
    26    15    38    1
    27    15    39    1
    28    16    17    1
    29    16    18    1
    30    16    40    1
    31    18    19   ar
    32    18    23   ar
    33    19    20   ar
    34    19    41    1
    35    20    21   ar
    36    20    42    1
    37    21    22   ar
    38    21    24    1
    39    22    23   ar
    40    22    43    1
    41    23    44    1
    42    24    45    1
    43    26    46    1
    44    27    47    1
    45    28    48    1
    46    29    49    1
    47    30    50    1
    48     1    31    1
    49     1    27    1
    50     2    32    1
    51     2    28    1
    52     4    34    1
    53     4    30    1
