@<TRIPOS>MOLECULE
*****
 50 53 0 0 0
SMALL
GASTEIGER

@<TRIPOS>ATOM
     1 C         -0.69808   -1.819575   0.986223 C.3        1 UNL1     0.1889
     2 C         -0.003529   -1.080634   -0.189152 C.3        1 UNL1     0.1342
     3 C         -0.624042   -1.34573   -1.569425 C.3        1 UNL1     0.1174
     4 C         -1.156867   -2.773185   -1.716353 C.3        1 UNL1     0.1456
     5 C         -1.994919   -3.218084   -0.503878 C.3        1 UNL1     0.2326
     6 O         -1.221966   -3.105476   0.688906 O.3        1 UNL1     -0.3076
     7 O         -3.270843   -2.558106   -0.415748 O.3        1 UNL1     -0.4605
     8 C         -4.297108   -3.295359   0.147072 C.ar        1 UNL1     0.1310
     9 C         -4.600812   -4.626386   -0.158594 C.ar        1 UNL1     0.0226
     10 C         -5.652835   -5.293713   0.480017 C.ar        1 UNL1     0.1343
     11 C         -6.412322   -4.652915   1.457973 C.ar        1 UNL1     0.1007
     12 C         -6.144861   -3.311133   1.742347 C.ar        1 UNL1     0.1389
     13 C         -5.088701   -2.639556   1.098188 C.ar        1 UNL1     0.0229
     14 C         -7.48072   -5.335754   2.223747 C.2        1 UNL1     0.1740
     15 C         -8.040087   -4.567063   3.384683 C.3        1 UNL1     0.0520
     16 C         -8.180514   -3.107877   2.973568 C.3        1 UNL1     0.1322
     17 O         -6.897973   -2.552407   2.60804 O.3        1 UNL1     -0.4828
     18 C         -9.293511   -2.859743   1.952592 C.ar        1 UNL1     -0.0067
     19 C         -9.019947   -2.09017   0.803186 C.ar        1 UNL1     -0.0516
     20 C         -10.026986   -1.804576   -0.126475 C.ar        1 UNL1     -0.0198
     21 C         -11.31045   -2.275506   0.085121 C.ar        1 UNL1     0.1169
     22 C         -11.603047   -3.064029   1.190318 C.ar        1 UNL1     -0.0198
     23 C         -10.591931   -3.365236   2.11063 C.ar        1 UNL1     -0.0516
     24 O         -12.273742   -1.945456   -0.822367 O.3        1 UNL1     -0.5068
     25 O         -7.84694   -6.485615   1.995303 O.2        1 UNL1     -0.2917
     26 O         -5.897859   -6.590988   0.135596 O.3        1 UNL1     -0.5058
     27 O         -1.640554   -1.017686   1.680128 O.3        1 UNL1     -0.3648
     28 O         1.370245   -1.507235   -0.247982 O.3        1 UNL1     -0.3841
     29 O         -1.603886   -0.354152   -1.883765 O.3        1 UNL1     -0.3863
     30 O         -0.044017   -3.680819   -1.869503 O.3        1 UNL1     -0.3829
     31 H         0.079811   -2.0256   1.729538 H        1 UNL1     0.0937
     32 H         0.0   0.0   0.0 H        1 UNL1     0.0671
     33 H         0.167278   -1.222845   -2.322041 H        1 UNL1     0.0649
     34 H         -1.763891   -2.854128   -2.624853 H        1 UNL1     0.0683
     35 H         -2.161563   -4.288813   -0.676062 H        1 UNL1     0.1085
     36 H         -4.012523   -5.196832   -0.868966 H        1 UNL1     0.0691
     37 H         -4.901672   -1.594717   1.336568 H        1 UNL1     0.0691
     38 H         -7.341885   -4.676213   4.221419 H        1 UNL1     0.0385
     39 H         -8.998408   -5.008359   3.679061 H        1 UNL1     0.0385
     40 H         -8.477628   -2.546279   3.869587 H        1 UNL1     0.0789
     41 H         -8.022723   -1.701257   0.618954 H        1 UNL1     0.0623
     42 H         -9.806267   -1.200086   -1.002767 H        1 UNL1     0.0654
     43 H         -12.601253   -3.450562   1.357911 H        1 UNL1     0.0654
     44 H         -10.853563   -3.992781   2.957142 H        1 UNL1     0.0623
     45 H         -12.625843   -2.764298   -1.207385 H        1 UNL1     0.2921
     46 H         -5.854879   -7.149665   0.927709 H        1 UNL1     0.2922
     47 H         -1.220061   -0.20679   1.998708 H        1 UNL1     0.2126
     48 H         1.779495   -1.250265   0.600672 H        1 UNL1     0.2101
     49 H         -1.170894   0.500725   -2.037056 H        1 UNL1     0.2100
     50 H         0.398469   -3.474712   -2.718879 H        1 UNL1     0.2102
@<TRIPOS>BOND
     1     1     2    1
     2     1     6    1
     3     2     3    1
     4     3     4    1
     5     3    29    1
     6     3    33    1
     7     4     5    1
     8     5     6    1
     9     5     7    1
    10     5    35    1
    11     7     8    1
    12     8     9   ar
    13     8    13   ar
    14     9    10   ar
    15     9    36    1
    16    10    11   ar
    17    10    26    1
    18    11    12   ar
    19    11    14    1
    20    12    13   ar
    21    12    17    1
    22    13    37    1
    23    14    15    1
    24    14    25    2
    25    15    16    1
    26    15    38    1
    27    15    39    1
    28    16    17    1
    29    16    18    1
    30    16    40    1
    31    18    19   ar
    32    18    23   ar
    33    19    20   ar
    34    19    41    1
    35    20    21   ar
    36    20    42    1
    37    21    22   ar
    38    21    24    1
    39    22    23   ar
    40    22    43    1
    41    23    44    1
    42    24    45    1
    43    26    46    1
    44    27    47    1
    45    28    48    1
    46    29    49    1
    47    30    50    1
    48     1    31    1
    49     1    27    1
    50     2    32    1
    51     2    28    1
    52     4    34    1
    53     4    30    1
