@<TRIPOS>MOLECULE
*****
 50 53 0 0 0
SMALL
GASTEIGER

@<TRIPOS>ATOM
     1 C         -0.152517   -1.13626   -1.859154 C.3        1 UNL1     0.1889
     2 C         0.255892   -1.001505   -0.367517 C.3        1 UNL1     0.1342
     3 C         1.740303   -1.275998   -0.081782 C.3        1 UNL1     0.1174
     4 C         2.326731   -2.365159   -0.983419 C.3        1 UNL1     0.1456
     5 C         1.949674   -2.172324   -2.463623 C.3        1 UNL1     0.2326
     6 O         0.531219   -2.134136   -2.602891 O.3        1 UNL1     -0.3076
     7 O         2.609315   -1.052587   -3.081997 O.3        1 UNL1     -0.4605
     8 C         2.172282   -0.716608   -4.350716 C.ar        1 UNL1     0.1310
     9 C         2.926162   -0.829537   -5.523837 C.ar        1 UNL1     0.0226
     10 C         2.387011   -0.478487   -6.767213 C.ar        1 UNL1     0.1343
     11 C         1.07162   -0.028052   -6.870634 C.ar        1 UNL1     0.1007
     12 C         0.322421   0.12784   -5.701368 C.ar        1 UNL1     0.1389
     13 C         0.865637   -0.222701   -4.450981 C.ar        1 UNL1     0.0229
     14 C         0.424449   0.276855   -8.16769 C.2        1 UNL1     0.1740
     15 C         -1.053206   0.531763   -8.111971 C.3        1 UNL1     0.0520
     16 C         -1.35228   1.363125   -6.872072 C.3        1 UNL1     0.1322
     17 O         -0.943978   0.664334   -5.675389 O.3        1 UNL1     -0.4828
     18 C         -0.854817   2.807697   -6.964077 C.ar        1 UNL1     -0.0067
     19 C         -1.77799   3.866924   -6.845742 C.ar        1 UNL1     -0.0516
     20 C         -1.363846   5.198242   -6.972385 C.ar        1 UNL1     -0.0198
     21 C         -0.033578   5.482532   -7.22417 C.ar        1 UNL1     0.1169
     22 C         0.904909   4.462595   -7.312545 C.ar        1 UNL1     -0.0198
     23 C         0.494173   3.132055   -7.167582 C.ar        1 UNL1     -0.0516
     24 O         0.326089   6.789068   -7.379098 O.3        1 UNL1     -0.5068
     25 O         1.018308   0.250005   -9.242444 O.2        1 UNL1     -0.2917
     26 O         3.175161   -0.610955   -7.873041 O.3        1 UNL1     -0.5058
     27 O         -0.184881   0.10217   -2.550551 O.3        1 UNL1     -0.3648
     28 O         -0.510401   -1.946389   0.402349 O.3        1 UNL1     -0.3841
     29 O         2.495811   -0.063479   -0.115515 O.3        1 UNL1     -0.3863
     30 O         1.84346   -3.6537   -0.545469 O.3        1 UNL1     -0.3829
     31 H         -1.19335   -1.477803   -1.868888 H        1 UNL1     0.0937
     32 H         0.0   0.0   0.0 H        1 UNL1     0.0671
     33 H         1.820924   -1.641351   0.951532 H        1 UNL1     0.0649
     34 H         3.418014   -2.382588   -0.887507 H        1 UNL1     0.0683
     35 H         2.29282   -3.095889   -2.946486 H        1 UNL1     0.1085
     36 H         3.935603   -1.225898   -5.51701 H        1 UNL1     0.0691
     37 H         0.262112   -0.090939   -3.555498 H        1 UNL1     0.0691
     38 H         -1.555496   -0.440421   -8.066239 H        1 UNL1     0.0385
     39 H         -1.365593   1.03516   -9.033267 H        1 UNL1     0.0385
     40 H         -2.444959   1.436893   -6.78762 H        1 UNL1     0.0789
     41 H         -2.829287   3.66964   -6.657311 H        1 UNL1     0.0623
     42 H         -2.087325   6.005681   -6.890952 H        1 UNL1     0.0654
     43 H         1.951703   4.674765   -7.494525 H        1 UNL1     0.0654
     44 H         1.25598   2.361113   -7.231952 H        1 UNL1     0.0623
     45 H         -0.141667   7.146446   -8.151239 H        1 UNL1     0.2921
     46 H         3.146681   0.209158   -8.390744 H        1 UNL1     0.2922
     47 H         -0.683867   0.012697   -3.374486 H        1 UNL1     0.2126
     48 H         -1.081219   -1.424089   0.998254 H        1 UNL1     0.2101
     49 H         2.925753   0.033516   -0.980116 H        1 UNL1     0.2100
     50 H         2.517914   -4.32434   -0.780132 H        1 UNL1     0.2102
@<TRIPOS>BOND
     1     1     2    1
     2     1     6    1
     3     2     3    1
     4     3     4    1
     5     3    29    1
     6     3    33    1
     7     4     5    1
     8     5     6    1
     9     5     7    1
    10     5    35    1
    11     7     8    1
    12     8     9   ar
    13     8    13   ar
    14     9    10   ar
    15     9    36    1
    16    10    11   ar
    17    10    26    1
    18    11    12   ar
    19    11    14    1
    20    12    13   ar
    21    12    17    1
    22    13    37    1
    23    14    15    1
    24    14    25    2
    25    15    16    1
    26    15    38    1
    27    15    39    1
    28    16    17    1
    29    16    18    1
    30    16    40    1
    31    18    19   ar
    32    18    23   ar
    33    19    20   ar
    34    19    41    1
    35    20    21   ar
    36    20    42    1
    37    21    22   ar
    38    21    24    1
    39    22    23   ar
    40    22    43    1
    41    23    44    1
    42    24    45    1
    43    26    46    1
    44    27    47    1
    45    28    48    1
    46    29    49    1
    47    30    50    1
    48     1    31    1
    49     1    27    1
    50     2    32    1
    51     2    28    1
    52     4    34    1
    53     4    30    1
