@<TRIPOS>MOLECULE
*****
 50 53 0 0 0
SMALL
GASTEIGER

@<TRIPOS>ATOM
     1 C         -0.334266   -1.333214   1.697531 C.3        1 UNL1     0.1889
     2 C         -0.464257   -0.975159   0.192593 C.3        1 UNL1     0.1342
     3 C         -1.90513   -0.958193   -0.340382 C.3        1 UNL1     0.1174
     4 C         -2.793334   -2.017928   0.316255 C.3        1 UNL1     0.1456
     5 C         -2.641581   -2.048516   1.848051 C.3        1 UNL1     0.2326
     6 O         -1.277053   -2.270281   2.196982 O.3        1 UNL1     -0.3076
     7 O         -3.214279   -0.902514   2.503807 O.3        1 UNL1     -0.4605
     8 C         -3.724478   -1.121186   3.770853 C.ar        1 UNL1     0.1310
     9 C         -4.542918   -2.193821   4.140869 C.ar        1 UNL1     0.0226
     10 C         -4.996222   -2.337698   5.457576 C.ar        1 UNL1     0.1343
     11 C         -4.622184   -1.42453   6.442493 C.ar        1 UNL1     0.1007
     12 C         -3.83889   -0.326741   6.076306 C.ar        1 UNL1     0.1389
     13 C         -3.3854   -0.180855   4.751732 C.ar        1 UNL1     0.0229
     14 C         -5.003201   -1.574351   7.866057 C.2        1 UNL1     0.1740
     15 C         -4.332482   -0.630563   8.820494 C.3        1 UNL1     0.0520
     16 C         -4.260509   0.743451   8.168679 C.3        1 UNL1     0.1322
     17 O         -3.50198   0.689214   6.940363 O.3        1 UNL1     -0.4828
     18 C         -5.618414   1.438899   8.045509 C.ar        1 UNL1     -0.0067
     19 C         -5.995177   2.008995   6.812118 C.ar        1 UNL1     -0.0516
     20 C         -7.209112   2.693359   6.678069 C.ar        1 UNL1     -0.0198
     21 C         -8.049772   2.820589   7.769367 C.ar        1 UNL1     0.1169
     22 C         -7.721794   2.241269   8.988243 C.ar        1 UNL1     -0.0198
     23 C         -6.516424   1.540993   9.117679 C.ar        1 UNL1     -0.0516
     24 O         -9.206071   3.526459   7.610873 O.3        1 UNL1     -0.5068
     25 O         -5.753707   -2.455963   8.275917 O.2        1 UNL1     -0.2917
     26 O         -5.792605   -3.405464   5.75293 O.3        1 UNL1     -0.5058
     27 O         -0.226711   -0.197922   2.541527 O.3        1 UNL1     -0.3648
     28 O         0.264334   -1.952487   -0.573365 O.3        1 UNL1     -0.3841
     29 O         -2.460083   0.35622   -0.259889 O.3        1 UNL1     -0.3863
     30 O         -2.448303   -3.317677   -0.210335 O.3        1 UNL1     -0.3829
     31 H         0.625446   -1.848272   1.814782 H        1 UNL1     0.0937
     32 H         0.0   0.0   0.0 H        1 UNL1     0.0671
     33 H         -1.868702   -1.194332   -1.413057 H        1 UNL1     0.0649
     34 H         -3.84315   -1.836781   0.060378 H        1 UNL1     0.0683
     35 H         -3.197947   -2.944322   2.151148 H        1 UNL1     0.1085
     36 H         -4.822838   -2.967638   3.434489 H        1 UNL1     0.0691
     37 H         -2.77768   0.683274   4.49202 H        1 UNL1     0.0691
     38 H         -3.3309   -1.023319   9.025684 H        1 UNL1     0.0385
     39 H         -4.892642   -0.613553   9.761616 H        1 UNL1     0.0385
     40 H         -3.664362   1.385284   8.831385 H        1 UNL1     0.0789
     41 H         -5.348607   1.930792   5.942933 H        1 UNL1     0.0623
     42 H         -7.482917   3.138827   5.724863 H        1 UNL1     0.0654
     43 H         -8.379748   2.321935   9.845272 H        1 UNL1     0.0654
     44 H         -6.297069   1.092083   10.081634 H        1 UNL1     0.0623
     45 H         -8.978028   4.436472   7.360695 H        1 UNL1     0.2921
     46 H         -5.390439   -3.920396   6.47023 H        1 UNL1     0.2922
     47 H         0.515582   0.356736   2.263652 H        1 UNL1     0.2126
     48 H         1.198362   -1.885413   -0.29619 H        1 UNL1     0.2101
     49 H         -2.020322   0.939789   -0.89852 H        1 UNL1     0.2100
     50 H         -2.681705   -3.329205   -1.161704 H        1 UNL1     0.2102
@<TRIPOS>BOND
     1     1     2    1
     2     1     6    1
     3     2     3    1
     4     3     4    1
     5     3    29    1
     6     3    33    1
     7     4     5    1
     8     5     6    1
     9     5     7    1
    10     5    35    1
    11     7     8    1
    12     8     9   ar
    13     8    13   ar
    14     9    10   ar
    15     9    36    1
    16    10    11   ar
    17    10    26    1
    18    11    12   ar
    19    11    14    1
    20    12    13   ar
    21    12    17    1
    22    13    37    1
    23    14    15    1
    24    14    25    2
    25    15    16    1
    26    15    38    1
    27    15    39    1
    28    16    17    1
    29    16    18    1
    30    16    40    1
    31    18    19   ar
    32    18    23   ar
    33    19    20   ar
    34    19    41    1
    35    20    21   ar
    36    20    42    1
    37    21    22   ar
    38    21    24    1
    39    22    23   ar
    40    22    43    1
    41    23    44    1
    42    24    45    1
    43    26    46    1
    44    27    47    1
    45    28    48    1
    46    29    49    1
    47    30    50    1
    48     1    31    1
    49     1    27    1
    50     2    32    1
    51     2    28    1
    52     4    34    1
    53     4    30    1
