@<TRIPOS>MOLECULE
*****
 50 53 0 0 0
SMALL
GASTEIGER

@<TRIPOS>ATOM
     1 C         -0.371054   -1.397585   1.637034 C.3        1 UNL1     0.1889
     2 C         -0.487883   -0.971268   0.148899 C.3        1 UNL1     0.1342
     3 C         -1.926304   -0.896695   -0.385749 C.3        1 UNL1     0.1174
     4 C         -2.841446   -1.962543   0.2222 C.3        1 UNL1     0.1456
     5 C         -2.695163   -2.063488   1.751505 C.3        1 UNL1     0.2326
     6 O         -1.337367   -2.332761   2.093191 O.3        1 UNL1     -0.3076
     7 O         -3.242481   -0.933817   2.455498 O.3        1 UNL1     -0.4605
     8 C         -3.486251   -1.12018   3.804339 C.ar        1 UNL1     0.1310
     9 C         -4.3874   -2.043762   4.344919 C.ar        1 UNL1     0.0226
     10 C         -4.551516   -2.169518   5.729532 C.ar        1 UNL1     0.1343
     11 C         -3.800306   -1.390555   6.608589 C.ar        1 UNL1     0.1007
     12 C         -2.927155   -0.436083   6.08003 C.ar        1 UNL1     0.1389
     13 C         -2.764254   -0.307989   4.687735 C.ar        1 UNL1     0.0229
     14 C         -3.872388   -1.540688   8.080465 C.2        1 UNL1     0.1740
     15 C         -2.838652   -0.783971   8.861693 C.3        1 UNL1     0.0520
     16 C         -2.657762   0.585392   8.221318 C.3        1 UNL1     0.1322
     17 O         -2.219279   0.456691   6.85083 O.3        1 UNL1     -0.4828
     18 C         -3.85262   1.52114   8.419847 C.ar        1 UNL1     -0.0067
     19 C         -5.045267   1.013302   8.974742 C.ar        1 UNL1     -0.0516
     20 C         -6.172016   1.830314   9.126033 C.ar        1 UNL1     -0.0198
     21 C         -6.121302   3.151956   8.720423 C.ar        1 UNL1     0.1169
     22 C         -4.950762   3.689807   8.201395 C.ar        1 UNL1     -0.0198
     23 C         -3.818158   2.877883   8.067065 C.ar        1 UNL1     -0.0516
     24 O         -7.249945   3.90708   8.8483 O.3        1 UNL1     -0.5068
     25 O         -4.663651   -2.291025   8.645604 O.2        1 UNL1     -0.2917
     26 O         -5.447466   -3.088538   6.192415 O.3        1 UNL1     -0.5058
     27 O         -0.239147   -0.303053   2.53 O.3        1 UNL1     -0.3648
     28 O         0.219629   -1.931391   -0.657511 O.3        1 UNL1     -0.3841
     29 O         -2.450117   0.425831   -0.249082 O.3        1 UNL1     -0.3863
     30 O         -2.525779   -3.245967   -0.359923 O.3        1 UNL1     -0.3829
     31 H         0.575785   -1.940026   1.733637 H        1 UNL1     0.0937
     32 H         0.0   0.0   0.0 H        1 UNL1     0.0671
     33 H         -1.892207   -1.086653   -1.467633 H        1 UNL1     0.0649
     34 H         -3.885872   -1.745407   -0.027655 H        1 UNL1     0.0683
     35 H         -3.273584   -2.958119   2.01408 H        1 UNL1     0.1085
     36 H         -4.959706   -2.717079   3.716245 H        1 UNL1     0.0691
     37 H         -2.078991   0.443487   4.301482 H        1 UNL1     0.0691
     38 H         -1.908961   -1.361922   8.82743 H        1 UNL1     0.0385
     39 H         -3.159144   -0.713283   9.906713 H        1 UNL1     0.0385
     40 H         -1.817839   1.073895   8.733581 H        1 UNL1     0.0789
     41 H         -5.11341   -0.023084   9.292407 H        1 UNL1     0.0623
     42 H         -7.08955   1.423848   9.544278 H        1 UNL1     0.0654
     43 H         -4.895469   4.727444   7.894536 H        1 UNL1     0.0654
     44 H         -2.917454   3.333925   7.667561 H        1 UNL1     0.0623
     45 H         -7.2654   4.286633   9.741843 H        1 UNL1     0.2921
     46 H         -5.05353   -3.581748   6.92928 H        1 UNL1     0.2922
     47 H         -1.111595   0.01197   2.80469 H        1 UNL1     0.2126
     48 H         -0.336636   -2.1019   -1.441875 H        1 UNL1     0.2101
     49 H         -1.761692   1.02008   0.089642 H        1 UNL1     0.2100
     50 H         -1.991227   -3.748286   0.289416 H        1 UNL1     0.2102
@<TRIPOS>BOND
     1     1     2    1
     2     1     6    1
     3     2     3    1
     4     3     4    1
     5     3    29    1
     6     3    33    1
     7     4     5    1
     8     5     6    1
     9     5     7    1
    10     5    35    1
    11     7     8    1
    12     8     9   ar
    13     8    13   ar
    14     9    10   ar
    15     9    36    1
    16    10    11   ar
    17    10    26    1
    18    11    12   ar
    19    11    14    1
    20    12    13   ar
    21    12    17    1
    22    13    37    1
    23    14    15    1
    24    14    25    2
    25    15    16    1
    26    15    38    1
    27    15    39    1
    28    16    17    1
    29    16    18    1
    30    16    40    1
    31    18    19   ar
    32    18    23   ar
    33    19    20   ar
    34    19    41    1
    35    20    21   ar
    36    20    42    1
    37    21    22   ar
    38    21    24    1
    39    22    23   ar
    40    22    43    1
    41    23    44    1
    42    24    45    1
    43    26    46    1
    44    27    47    1
    45    28    48    1
    46    29    49    1
    47    30    50    1
    48     1    31    1
    49     1    27    1
    50     2    32    1
    51     2    28    1
    52     4    34    1
    53     4    30    1
