@<TRIPOS>MOLECULE
*****
 50 53 0 0 0
SMALL
GASTEIGER

@<TRIPOS>ATOM
     1 C         -1.215505   -0.324293   1.785549 C.3        1 UNL1     0.1889
     2 C         0.114564   -0.448366   0.994688 C.3        1 UNL1     0.1342
     3 C         0.63682   -1.884919   0.839674 C.3        1 UNL1     0.1174
     4 C         0.339609   -2.759429   2.060336 C.3        1 UNL1     0.1456
     5 C         -1.11449   -2.61965   2.546567 C.3        1 UNL1     0.2326
     6 O         -1.398808   -1.254279   2.842867 O.3        1 UNL1     -0.3076
     7 O         -2.075934   -3.218   1.658354 O.3        1 UNL1     -0.4605
     8 C         -2.534748   -2.413544   0.6308 C.ar        1 UNL1     0.1310
     9 C         -2.437212   -2.707247   -0.733578 C.ar        1 UNL1     0.0226
     10 C         -2.949161   -1.833656   -1.70035 C.ar        1 UNL1     0.1343
     11 C         -3.592898   -0.655334   -1.32485 C.ar        1 UNL1     0.1007
     12 C         -3.660066   -0.331371   0.032839 C.ar        1 UNL1     0.1389
     13 C         -3.142883   -1.208653   1.004604 C.ar        1 UNL1     0.0229
     14 C         -4.22589   0.262485   -2.300086 C.2        1 UNL1     0.1740
     15 C         -5.063132   1.35932   -1.710572 C.3        1 UNL1     0.0520
     16 C         -4.353421   1.896228   -0.475258 C.3        1 UNL1     0.1322
     17 O         -4.174748   0.852658   0.50765 O.3        1 UNL1     -0.4828
     18 C         -3.085978   2.694177   -0.790834 C.ar        1 UNL1     -0.0067
     19 C         -2.275122   2.305143   -1.876827 C.ar        1 UNL1     -0.0516
     20 C         -1.084809   2.983903   -2.163885 C.ar        1 UNL1     -0.0198
     21 C         -0.69151   4.046259   -1.369818 C.ar        1 UNL1     0.1169
     22 C         -1.485576   4.474018   -0.31373 C.ar        1 UNL1     -0.0198
     23 C         -2.685183   3.807079   -0.037703 C.ar        1 UNL1     -0.0516
     24 O         0.492735   4.659102   -1.65685 O.3        1 UNL1     -0.5068
     25 O         -4.153035   0.111132   -3.516749 O.2        1 UNL1     -0.2917
     26 O         -2.820752   -2.178206   -3.014269 O.3        1 UNL1     -0.5058
     27 O         -2.362238   -0.243866   0.954092 O.3        1 UNL1     -0.3648
     28 O         1.12855   0.303741   1.686696 O.3        1 UNL1     -0.3841
     29 O         0.173459   -2.463838   -0.381916 O.3        1 UNL1     -0.3863
     30 O         1.22689   -2.387016   3.137245 O.3        1 UNL1     -0.3829
     31 H         -1.185615   0.643454   2.298045 H        1 UNL1     0.0937
     32 H         0.0   0.0   -0.0 H        1 UNL1     0.0671
     33 H         1.73039   -1.835546   0.742785 H        1 UNL1     0.0649
     34 H         0.543199   -3.810184   1.826102 H        1 UNL1     0.0683
     35 H         -1.127912   -3.162423   3.500033 H        1 UNL1     0.1085
     36 H         -1.998174   -3.633595   -1.087479 H        1 UNL1     0.0691
     37 H         -3.206749   -0.932771   2.054986 H        1 UNL1     0.0691
     38 H         -6.036737   0.929882   -1.451338 H        1 UNL1     0.0385
     39 H         -5.222102   2.135513   -2.4669 H        1 UNL1     0.0385
     40 H         -5.035176   2.611455   0.004514 H        1 UNL1     0.0789
     41 H         -2.557234   1.468697   -2.509616 H        1 UNL1     0.0623
     42 H         -0.46218   2.666838   -2.99684 H        1 UNL1     0.0654
     43 H         -1.194567   5.314283   0.305285 H        1 UNL1     0.0654
     44 H         -3.286021   4.174854   0.788481 H        1 UNL1     0.0623
     45 H         0.708942   4.487876   -2.587792 H        1 UNL1     0.2921
     46 H         -3.67996   -2.092207   -3.456736 H        1 UNL1     0.2922
     47 H         -3.135234   -0.599319   1.414516 H        1 UNL1     0.2126
     48 H         1.383503   1.038661   1.096253 H        1 UNL1     0.2101
     49 H         0.125246   -1.783371   -1.072158 H        1 UNL1     0.2100
     50 H         1.364522   -3.176216   3.701101 H        1 UNL1     0.2102
@<TRIPOS>BOND
     1     1     2    1
     2     1     6    1
     3     2     3    1
     4     3     4    1
     5     3    29    1
     6     3    33    1
     7     4     5    1
     8     5     6    1
     9     5     7    1
    10     5    35    1
    11     7     8    1
    12     8     9   ar
    13     8    13   ar
    14     9    10   ar
    15     9    36    1
    16    10    11   ar
    17    10    26    1
    18    11    12   ar
    19    11    14    1
    20    12    13   ar
    21    12    17    1
    22    13    37    1
    23    14    15    1
    24    14    25    2
    25    15    16    1
    26    15    38    1
    27    15    39    1
    28    16    17    1
    29    16    18    1
    30    16    40    1
    31    18    19   ar
    32    18    23   ar
    33    19    20   ar
    34    19    41    1
    35    20    21   ar
    36    20    42    1
    37    21    22   ar
    38    21    24    1
    39    22    23   ar
    40    22    43    1
    41    23    44    1
    42    24    45    1
    43    26    46    1
    44    27    47    1
    45    28    48    1
    46    29    49    1
    47    30    50    1
    48     1    31    1
    49     1    27    1
    50     2    32    1
    51     2    28    1
    52     4    34    1
    53     4    30    1
