@<TRIPOS>MOLECULE
*****
 50 53 0 0 0
SMALL
GASTEIGER

@<TRIPOS>ATOM
     1 C         -0.370977   -1.397649   1.636996 C.3        1 UNL1     0.1889
     2 C         -0.487866   -0.971279   0.148881 C.3        1 UNL1     0.1342
     3 C         -1.926307   -0.896705   -0.385711 C.3        1 UNL1     0.1174
     4 C         -2.841414   -1.962586   0.222231 C.3        1 UNL1     0.1456
     5 C         -2.695074   -2.063586   1.751528 C.3        1 UNL1     0.2326
     6 O         -1.337261   -2.332855   2.093154 O.3        1 UNL1     -0.3076
     7 O         -3.24238   -0.933947   2.455582 O.3        1 UNL1     -0.4605
     8 C         -3.7717   -1.19748   3.706142 C.ar        1 UNL1     0.1310
     9 C         -4.620811   -2.264684   4.018206 C.ar        1 UNL1     0.0226
     10 C         -5.091919   -2.457265   5.322381 C.ar        1 UNL1     0.1343
     11 C         -4.705826   -1.600192   6.352041 C.ar        1 UNL1     0.1007
     12 C         -3.891257   -0.507144   6.044621 C.ar        1 UNL1     0.1389
     13 C         -3.419827   -0.312201   4.732683 C.ar        1 UNL1     0.0229
     14 C         -5.105989   -1.805466   7.763383 C.2        1 UNL1     0.1740
     15 C         -4.422224   -0.924009   8.766901 C.3        1 UNL1     0.0520
     16 C         -4.308656   0.476212   8.180011 C.3        1 UNL1     0.1322
     17 O         -3.538377   0.459078   6.957944 O.3        1 UNL1     -0.4828
     18 C         -5.647239   1.211113   8.075895 C.ar        1 UNL1     -0.0067
     19 C         -5.662376   2.575575   7.720609 C.ar        1 UNL1     -0.0516
     20 C         -6.865296   3.28942   7.662542 C.ar        1 UNL1     -0.0198
     21 C         -8.056341   2.653515   7.963976 C.ar        1 UNL1     0.1169
     22 C         -8.077231   1.30237   8.284613 C.ar        1 UNL1     -0.0198
     23 C         -6.876401   0.583726   8.32478 C.ar        1 UNL1     -0.0516
     24 O         -9.203742   3.39037   7.93366 O.3        1 UNL1     -0.5068
     25 O         -5.882829   -2.685482   8.124736 O.2        1 UNL1     -0.2917
     26 O         -5.918046   -3.516741   5.560307 O.3        1 UNL1     -0.5058
     27 O         -0.23905   -0.303149   2.529998 O.3        1 UNL1     -0.3648
     28 O         0.219628   -1.931364   -0.65759 O.3        1 UNL1     -0.3841
     29 O         -2.450131   0.42581   -0.248976 O.3        1 UNL1     -0.3863
     30 O         -2.525752   -3.245985   -0.35995 O.3        1 UNL1     -0.3829
     31 H         0.575873   -1.940082   1.733544 H        1 UNL1     0.0937
     32 H         0.0   0.0   0.0 H        1 UNL1     0.0671
     33 H         -1.892247   -1.086623   -1.467603 H        1 UNL1     0.0649
     34 H         -3.885852   -1.745454   -0.027577 H        1 UNL1     0.0683
     35 H         -3.273473   -2.958233   2.014091 H        1 UNL1     0.1085
     36 H         -4.91236   -2.997807   3.274129 H        1 UNL1     0.0691
     37 H         -2.787796   0.547111   4.519111 H        1 UNL1     0.0691
     38 H         -3.433121   -1.351286   8.963463 H        1 UNL1     0.0385
     39 H         -4.992011   -0.935931   9.702304 H        1 UNL1     0.0385
     40 H         -3.703838   1.071446   8.877443 H        1 UNL1     0.0789
     41 H         -4.739941   3.099821   7.488381 H        1 UNL1     0.0623
     42 H         -6.862624   4.344163   7.398872 H        1 UNL1     0.0654
     43 H         -9.00592   0.790853   8.507768 H        1 UNL1     0.0654
     44 H         -6.931007   -0.472865   8.568659 H        1 UNL1     0.0623
     45 H         -9.156084   4.061103   8.634061 H        1 UNL1     0.2921
     46 H         -5.705096   -3.905601   6.423355 H        1 UNL1     0.2922
     47 H         0.506143   0.255135   2.267576 H        1 UNL1     0.2126
     48 H         1.171776   -1.779427   -0.502469 H        1 UNL1     0.2101
     49 H         -2.143336   0.979937   -0.984241 H        1 UNL1     0.2100
     50 H         -2.782712   -3.219798   -1.304936 H        1 UNL1     0.2102
@<TRIPOS>BOND
     1     1     2    1
     2     1     6    1
     3     2     3    1
     4     3     4    1
     5     3    29    1
     6     3    33    1
     7     4     5    1
     8     5     6    1
     9     5     7    1
    10     5    35    1
    11     7     8    1
    12     8     9   ar
    13     8    13   ar
    14     9    10   ar
    15     9    36    1
    16    10    11   ar
    17    10    26    1
    18    11    12   ar
    19    11    14    1
    20    12    13   ar
    21    12    17    1
    22    13    37    1
    23    14    15    1
    24    14    25    2
    25    15    16    1
    26    15    38    1
    27    15    39    1
    28    16    17    1
    29    16    18    1
    30    16    40    1
    31    18    19   ar
    32    18    23   ar
    33    19    20   ar
    34    19    41    1
    35    20    21   ar
    36    20    42    1
    37    21    22   ar
    38    21    24    1
    39    22    23   ar
    40    22    43    1
    41    23    44    1
    42    24    45    1
    43    26    46    1
    44    27    47    1
    45    28    48    1
    46    29    49    1
    47    30    50    1
    48     1    31    1
    49     1    27    1
    50     2    32    1
    51     2    28    1
    52     4    34    1
    53     4    30    1
