@<TRIPOS>MOLECULE
*****
 50 53 0 0 0
SMALL
GASTEIGER

@<TRIPOS>ATOM
     1 C         -0.345671   -1.336371   1.692758 C.3        1 UNL1     0.1889
     2 C         -0.46914   -0.973642   0.18839 C.3        1 UNL1     0.1342
     3 C         -1.908162   -0.948919   -0.349262 C.3        1 UNL1     0.1174
     4 C         -2.80314   -2.00655   0.301544 C.3        1 UNL1     0.1456
     5 C         -2.656569   -2.041985   1.83374 C.3        1 UNL1     0.2326
     6 O         -1.294179   -2.270667   2.186538 O.3        1 UNL1     -0.3076
     7 O         -3.226417   -0.895284   2.490757 O.3        1 UNL1     -0.4605
     8 C         -3.748531   -1.116798   3.752445 C.ar        1 UNL1     0.1310
     9 C         -4.577619   -2.185411   4.110187 C.ar        1 UNL1     0.0226
     10 C         -5.042712   -2.332799   5.422386 C.ar        1 UNL1     0.1343
     11 C         -4.670241   -1.427422   6.415059 C.ar        1 UNL1     0.1007
     12 C         -3.876149   -0.333422   6.060989 C.ar        1 UNL1     0.1389
     13 C         -3.410791   -0.183987   4.740936 C.ar        1 UNL1     0.0229
     14 C         -5.06397   -1.581821   7.834669 C.2        1 UNL1     0.1740
     15 C         -4.394367   -0.647801   8.799442 C.3        1 UNL1     0.0520
     16 C         -4.30724   0.728995   8.155394 C.3        1 UNL1     0.1322
     17 O         -3.539078   0.675627   6.93304 O.3        1 UNL1     -0.4828
     18 C         -5.659086   1.434811   8.024772 C.ar        1 UNL1     -0.0067
     19 C         -6.015293   2.026905   6.795645 C.ar        1 UNL1     -0.0516
     20 C         -7.223102   2.720911   6.655947 C.ar        1 UNL1     -0.0198
     21 C         -8.078001   2.835932   7.737494 C.ar        1 UNL1     0.1169
     22 C         -7.770429   2.235151   8.95129 C.ar        1 UNL1     -0.0198
     23 C         -6.571217   1.525363   9.086003 C.ar        1 UNL1     -0.0516
     24 O         -9.227713   3.55147   7.574495 O.3        1 UNL1     -0.5068
     25 O         -5.82409   -2.460112   8.233801 O.2        1 UNL1     -0.2917
     26 O         -5.849099   -3.396318   5.705675 O.3        1 UNL1     -0.5058
     27 O         -0.235944   -0.203869   2.540217 O.3        1 UNL1     -0.3648
     28 O         0.257698   -1.952051   -0.577853 O.3        1 UNL1     -0.3841
     29 O         -2.457636   0.367683   -0.266982 O.3        1 UNL1     -0.3863
     30 O         -2.462052   -3.306352   -0.227477 O.3        1 UNL1     -0.3829
     31 H         0.611393   -1.855939   1.811744 H        1 UNL1     0.0937
     32 H         0.0   0.0   0.0 H        1 UNL1     0.0671
     33 H         -1.869232   -1.182285   -1.422456 H        1 UNL1     0.0649
     34 H         -3.851307   -1.820115   0.042721 H        1 UNL1     0.0683
     35 H         -3.217835   -2.936173   2.132549 H        1 UNL1     0.1085
     36 H         -4.857264   -2.953552   3.39753 H        1 UNL1     0.0691
     37 H         -2.794803   0.677076   4.490688 H        1 UNL1     0.0691
     38 H         -3.397332   -1.048797   9.010748 H        1 UNL1     0.0385
     39 H         -4.962084   -0.631607   9.73604 H        1 UNL1     0.0385
     40 H         -3.711972   1.363108   8.826271 H        1 UNL1     0.0789
     41 H         -5.357239   1.958567   5.934282 H        1 UNL1     0.0623
     42 H         -7.480993   3.183271   5.706354 H        1 UNL1     0.0654
     43 H         -8.439683   2.306217   9.800383 H        1 UNL1     0.0654
     44 H         -6.367939   1.05973   10.045539 H        1 UNL1     0.0623
     45 H         -8.990701   4.464607   7.344879 H        1 UNL1     0.2921
     46 H         -5.456426   -3.917908   6.423424 H        1 UNL1     0.2922
     47 H         0.508833   0.34901   2.265456 H        1 UNL1     0.2126
     48 H         1.193413   -1.880058   -0.307692 H        1 UNL1     0.2101
     49 H         -2.018953   0.94904   -0.908368 H        1 UNL1     0.2100
     50 H         -2.697683   -3.316192   -1.178316 H        1 UNL1     0.2102
@<TRIPOS>BOND
     1     1     2    1
     2     1     6    1
     3     2     3    1
     4     3     4    1
     5     3    29    1
     6     3    33    1
     7     4     5    1
     8     5     6    1
     9     5     7    1
    10     5    35    1
    11     7     8    1
    12     8     9   ar
    13     8    13   ar
    14     9    10   ar
    15     9    36    1
    16    10    11   ar
    17    10    26    1
    18    11    12   ar
    19    11    14    1
    20    12    13   ar
    21    12    17    1
    22    13    37    1
    23    14    15    1
    24    14    25    2
    25    15    16    1
    26    15    38    1
    27    15    39    1
    28    16    17    1
    29    16    18    1
    30    16    40    1
    31    18    19   ar
    32    18    23   ar
    33    19    20   ar
    34    19    41    1
    35    20    21   ar
    36    20    42    1
    37    21    22   ar
    38    21    24    1
    39    22    23   ar
    40    22    43    1
    41    23    44    1
    42    24    45    1
    43    26    46    1
    44    27    47    1
    45    28    48    1
    46    29    49    1
    47    30    50    1
    48     1    31    1
    49     1    27    1
    50     2    32    1
    51     2    28    1
    52     4    34    1
    53     4    30    1
