@<TRIPOS>MOLECULE
*****
 50 53 0 0 0
SMALL
GASTEIGER

@<TRIPOS>ATOM
     1 C         -0.11093   -1.827809   1.190636 C.3        1 UNL1     0.1889
     2 C         -0.663268   -0.444838   0.752167 C.3        1 UNL1     0.1342
     3 C         -0.864642   0.558004   1.898562 C.3        1 UNL1     0.1174
     4 C         -1.308305   -0.11147   3.201668 C.3        1 UNL1     0.1456
     5 C         -0.473163   -1.360481   3.537636 C.3        1 UNL1     0.2326
     6 O         -0.539786   -2.293602   2.461665 O.3        1 UNL1     -0.3076
     7 O         0.874663   -1.057318   3.941092 O.3        1 UNL1     -0.4605
     8 C         1.762595   -2.118007   3.934273 C.ar        1 UNL1     0.1310
     9 C         2.644418   -2.443284   4.970556 C.ar        1 UNL1     0.0226
     10 C         3.495282   -3.550973   4.875905 C.ar        1 UNL1     0.1343
     11 C         3.468007   -4.374936   3.751547 C.ar        1 UNL1     0.1007
     12 C         2.620976   -4.036682   2.692818 C.ar        1 UNL1     0.1389
     13 C         1.767429   -2.921336   2.787121 C.ar        1 UNL1     0.0229
     14 C         4.284709   -5.60518   3.63471 C.2        1 UNL1     0.1740
     15 C         3.967067   -6.486483   2.462551 C.3        1 UNL1     0.0520
     16 C         3.704844   -5.601699   1.25162 C.3        1 UNL1     0.1322
     17 O         2.59116   -4.714603   1.496239 O.3        1 UNL1     -0.4828
     18 C         4.958814   -4.911141   0.709944 C.ar        1 UNL1     -0.0067
     19 C         4.900777   -4.244197   -0.531036 C.ar        1 UNL1     -0.0516
     20 C         6.040965   -3.643078   -1.07747 C.ar        1 UNL1     -0.0198
     21 C         7.24412   -3.708145   -0.397756 C.ar        1 UNL1     0.1169
     22 C         7.325296   -4.328841   0.841996 C.ar        1 UNL1     -0.0198
     23 C         6.181081   -4.914052   1.397293 C.ar        1 UNL1     -0.0516
     24 O         8.341666   -3.144023   -0.978756 O.3        1 UNL1     -0.5068
     25 O         5.117167   -5.946036   4.470962 O.2        1 UNL1     -0.2917
     26 O         4.332275   -3.813036   5.92106 O.3        1 UNL1     -0.5058
     27 O         1.293775   -1.950952   1.034343 O.3        1 UNL1     -0.3648
     28 O         -1.944585   -0.643003   0.126337 O.3        1 UNL1     -0.3841
     29 O         0.293871   1.37809   2.064207 O.3        1 UNL1     -0.3863
     30 O         -2.695275   -0.497472   3.087624 O.3        1 UNL1     -0.3829
     31 H         -0.525369   -2.565185   0.494508 H        1 UNL1     0.0937
     32 H         0.0   0.0   0.0 H        1 UNL1     0.0671
     33 H         -1.669583   1.246066   1.604687 H        1 UNL1     0.0649
     34 H         -1.241263   0.602068   4.030384 H        1 UNL1     0.0683
     35 H         -1.002979   -1.812777   4.38534 H        1 UNL1     0.1085
     36 H         2.673683   -1.875089   5.893821 H        1 UNL1     0.0691
     37 H         1.118239   -2.678692   1.948569 H        1 UNL1     0.0691
     38 H         3.080255   -7.074832   2.721271 H        1 UNL1     0.0385
     39 H         4.800182   -7.17815   2.297342 H        1 UNL1     0.0385
     40 H         3.360633   -6.257195   0.440224 H        1 UNL1     0.0789
     41 H         3.970381   -4.187112   -1.08849 H        1 UNL1     0.0623
     42 H         5.986108   -3.142045   -2.040782 H        1 UNL1     0.0654
     43 H         8.259044   -4.372524   1.389827 H        1 UNL1     0.0654
     44 H         6.278471   -5.3813   2.372506 H        1 UNL1     0.0623
     45 H         9.128739   -3.630115   -0.683888 H        1 UNL1     0.2921
     46 H         5.238785   -3.565428   5.679519 H        1 UNL1     0.2922
     47 H         1.498739   -2.610322   0.356787 H        1 UNL1     0.2126
     48 H         -2.561857   -0.014361   0.547665 H        1 UNL1     0.2101
     49 H         0.277041   2.106423   1.423081 H        1 UNL1     0.2100
     50 H         -3.004172   -0.250786   2.191275 H        1 UNL1     0.2102
@<TRIPOS>BOND
     1     1     2    1
     2     1     6    1
     3     2     3    1
     4     3     4    1
     5     3    29    1
     6     3    33    1
     7     4     5    1
     8     5     6    1
     9     5     7    1
    10     5    35    1
    11     7     8    1
    12     8     9   ar
    13     8    13   ar
    14     9    10   ar
    15     9    36    1
    16    10    11   ar
    17    10    26    1
    18    11    12   ar
    19    11    14    1
    20    12    13   ar
    21    12    17    1
    22    13    37    1
    23    14    15    1
    24    14    25    2
    25    15    16    1
    26    15    38    1
    27    15    39    1
    28    16    17    1
    29    16    18    1
    30    16    40    1
    31    18    19   ar
    32    18    23   ar
    33    19    20   ar
    34    19    41    1
    35    20    21   ar
    36    20    42    1
    37    21    22   ar
    38    21    24    1
    39    22    23   ar
    40    22    43    1
    41    23    44    1
    42    24    45    1
    43    26    46    1
    44    27    47    1
    45    28    48    1
    46    29    49    1
    47    30    50    1
    48     1    31    1
    49     1    27    1
    50     2    32    1
    51     2    28    1
    52     4    34    1
    53     4    30    1
