@<TRIPOS>MOLECULE
*****
 50 53 0 0 0
SMALL
GASTEIGER

@<TRIPOS>ATOM
     1 C         1.74305   -0.990636   0.86673 C.3        1 UNL1     0.1889
     2 C         0.212662   -0.746862   0.774942 C.3        1 UNL1     0.1342
     3 C         -0.446398   -0.305375   2.090691 C.3        1 UNL1     0.1174
     4 C         0.195209   -0.950616   3.321594 C.3        1 UNL1     0.1456
     5 C         1.733227   -0.891257   3.285003 C.3        1 UNL1     0.2326
     6 O         2.215695   -1.516772   2.098064 O.3        1 UNL1     -0.3076
     7 O         2.260568   0.433443   3.480966 O.3        1 UNL1     -0.4605
     8 C         2.88089   1.007139   2.385704 C.ar        1 UNL1     0.1310
     9 C         2.697295   2.323043   1.947536 C.ar        1 UNL1     0.0226
     10 C         3.386399   2.817821   0.833878 C.ar        1 UNL1     0.1343
     11 C         4.29466   2.015115   0.144992 C.ar        1 UNL1     0.1007
     12 C         4.455766   0.686855   0.548171 C.ar        1 UNL1     0.1389
     13 C         3.760779   0.188803   1.66637 C.ar        1 UNL1     0.0229
     14 C         5.11168   2.511778   -0.986361 C.2        1 UNL1     0.1740
     15 C         6.191911   1.585725   -1.462884 C.3        1 UNL1     0.0520
     16 C         5.646367   0.164363   -1.45447 C.3        1 UNL1     0.1322
     17 O         5.241386   -0.221579   -0.122513 O.3        1 UNL1     -0.4828
     18 C         4.597831   -0.099609   -2.537805 C.ar        1 UNL1     -0.0067
     19 C         5.014017   -0.30231   -3.869689 C.ar        1 UNL1     -0.0516
     20 C         4.078567   -0.499056   -4.892522 C.ar        1 UNL1     -0.0198
     21 C         2.72686   -0.48798   -4.598256 C.ar        1 UNL1     0.1169
     22 C         2.287225   -0.324217   -3.291067 C.ar        1 UNL1     -0.0198
     23 C         3.223081   -0.145867   -2.265192 C.ar        1 UNL1     -0.0516
     24 O         1.844185   -0.645093   -5.626167 O.3        1 UNL1     -0.5068
     25 O         4.987697   3.634717   -1.468152 O.2        1 UNL1     -0.2917
     26 O         3.161567   4.109855   0.457471 O.3        1 UNL1     -0.5058
     27 O         2.518713   0.117385   0.438451 O.3        1 UNL1     -0.3648
     28 O         -0.421162   -1.974146   0.36905 O.3        1 UNL1     -0.3841
     29 O         -0.500071   1.120001   2.177607 O.3        1 UNL1     -0.3863
     30 O         -0.214143   -2.333401   3.399234 O.3        1 UNL1     -0.3829
     31 H         1.978024   -1.779715   0.144082 H        1 UNL1     0.0937
     32 H         0.0   0.0   0.0 H        1 UNL1     0.0671
     33 H         -1.494214   -0.635983   2.068346 H        1 UNL1     0.0649
     34 H         -0.164157   -0.458337   4.232044 H        1 UNL1     0.0683
     35 H         2.042441   -1.523288   4.126907 H        1 UNL1     0.1085
     36 H         2.047562   3.013815   2.473655 H        1 UNL1     0.0691
     37 H         3.902925   -0.849238   1.959216 H        1 UNL1     0.0691
     38 H         7.040782   1.687019   -0.778279 H        1 UNL1     0.0385
     39 H         6.518106   1.898124   -2.460773 H        1 UNL1     0.0385
     40 H         6.48412   -0.505317   -1.691574 H        1 UNL1     0.0789
     41 H         6.06897   -0.30626   -4.12797 H        1 UNL1     0.0623
     42 H         4.411613   -0.642427   -5.917479 H        1 UNL1     0.0654
     43 H         1.231559   -0.328891   -3.047228 H        1 UNL1     0.0654
     44 H         2.844581   -0.031414   -1.254012 H        1 UNL1     0.0623
     45 H         1.027249   -0.169589   -5.404295 H        1 UNL1     0.2921
     46 H         3.715642   4.702832   0.989252 H        1 UNL1     0.2922
     47 H         3.258225   -0.182894   -0.108187 H        1 UNL1     0.2126
     48 H         -0.793271   -2.37727   1.176985 H        1 UNL1     0.2101
     49 H         0.3628   1.497608   1.94381 H        1 UNL1     0.2100
     50 H         0.019129   -2.667329   4.290182 H        1 UNL1     0.2102
@<TRIPOS>BOND
     1     1     2    1
     2     1     6    1
     3     2     3    1
     4     3     4    1
     5     3    29    1
     6     3    33    1
     7     4     5    1
     8     5     6    1
     9     5     7    1
    10     5    35    1
    11     7     8    1
    12     8     9   ar
    13     8    13   ar
    14     9    10   ar
    15     9    36    1
    16    10    11   ar
    17    10    26    1
    18    11    12   ar
    19    11    14    1
    20    12    13   ar
    21    12    17    1
    22    13    37    1
    23    14    15    1
    24    14    25    2
    25    15    16    1
    26    15    38    1
    27    15    39    1
    28    16    17    1
    29    16    18    1
    30    16    40    1
    31    18    19   ar
    32    18    23   ar
    33    19    20   ar
    34    19    41    1
    35    20    21   ar
    36    20    42    1
    37    21    22   ar
    38    21    24    1
    39    22    23   ar
    40    22    43    1
    41    23    44    1
    42    24    45    1
    43    26    46    1
    44    27    47    1
    45    28    48    1
    46    29    49    1
    47    30    50    1
    48     1    31    1
    49     1    27    1
    50     2    32    1
    51     2    28    1
    52     4    34    1
    53     4    30    1
