@<TRIPOS>MOLECULE
*****
 50 53 0 0 0
SMALL
GASTEIGER

@<TRIPOS>ATOM
     1 C         0.520947   -1.630352   -1.356971 C.3        1 UNL1     0.1889
     2 C         0.231381   -1.070612   0.061755 C.3        1 UNL1     0.1342
     3 C         1.364738   -1.280562   1.077574 C.3        1 UNL1     0.1174
     4 C         2.112779   -2.599515   0.868017 C.3        1 UNL1     0.1456
     5 C         2.476688   -2.843611   -0.607906 C.3        1 UNL1     0.2326
     6 O         1.298088   -2.81764   -1.409838 O.3        1 UNL1     -0.3076
     7 O         3.511895   -1.970459   -1.095014 O.3        1 UNL1     -0.4605
     8 C         4.713695   -2.575378   -1.41638 C.ar        1 UNL1     0.1310
     9 C         4.861328   -3.70017   -2.235127 C.ar        1 UNL1     0.0226
     10 C         6.126399   -4.229952   -2.515888 C.ar        1 UNL1     0.1343
     11 C         7.277392   -3.632895   -2.003463 C.ar        1 UNL1     0.1007
     12 C         7.140089   -2.533867   -1.151366 C.ar        1 UNL1     0.1389
     13 C         5.867788   -2.00296   -0.867082 C.ar        1 UNL1     0.0229
     14 C         8.643185   -4.100275   -2.335607 C.2        1 UNL1     0.1740
     15 C         9.762497   -3.210628   -1.880395 C.3        1 UNL1     0.0520
     16 C         9.428793   -2.690043   -0.48914 C.3        1 UNL1     0.1322
     17 O         8.197088   -1.935262   -0.505849 O.3        1 UNL1     -0.4828
     18 C         9.502499   -3.759764   0.6031 C.ar        1 UNL1     -0.0067
     19 C         10.120003   -3.452422   1.832914 C.ar        1 UNL1     -0.0516
     20 C         10.246409   -4.421614   2.835237 C.ar        1 UNL1     -0.0198
     21 C         9.767055   -5.700959   2.617695 C.ar        1 UNL1     0.1169
     22 C         9.124265   -6.024731   1.429911 C.ar        1 UNL1     -0.0198
     23 C         8.981276   -5.050622   0.43456 C.ar        1 UNL1     -0.0516
     24 O         9.941861   -6.628667   3.602176 O.3        1 UNL1     -0.5068
     25 O         8.869894   -5.103073   -3.007534 O.2        1 UNL1     -0.2917
     26 O         6.201678   -5.329188   -3.320624 O.3        1 UNL1     -0.5058
     27 O         0.999302   -0.650437   -2.264566 O.3        1 UNL1     -0.3648
     28 O         -0.937944   -1.729764   0.582242 O.3        1 UNL1     -0.3841
     29 O         2.236327   -0.148459   1.106004 O.3        1 UNL1     -0.3863
     30 O         1.286944   -3.690923   1.329011 O.3        1 UNL1     -0.3829
     31 H         -0.443979   -1.937079   -1.775199 H        1 UNL1     0.0937
     32 H         0.0   0.0   0.0 H        1 UNL1     0.0671
     33 H         0.91358   -1.326651   2.0786 H        1 UNL1     0.0649
     34 H         3.02647   -2.611392   1.472523 H        1 UNL1     0.0683
     35 H         2.848951   -3.875657   -0.621366 H        1 UNL1     0.1085
     36 H         4.009893   -4.176247   -2.708974 H        1 UNL1     0.0691
     37 H         5.787784   -1.147449   -0.199854 H        1 UNL1     0.0691
     38 H         9.846169   -2.389156   -2.599915 H        1 UNL1     0.0385
     39 H         10.700168   -3.776561   -1.896827 H        1 UNL1     0.0385
     40 H         10.199156   -1.952575   -0.226076 H        1 UNL1     0.0789
     41 H         10.512594   -2.458062   2.02467 H        1 UNL1     0.0623
     42 H         10.735185   -4.175623   3.774704 H        1 UNL1     0.0654
     43 H         8.731777   -7.019349   1.254989 H        1 UNL1     0.0654
     44 H         8.464374   -5.335465   -0.476769 H        1 UNL1     0.0623
     45 H         9.723653   -6.216819   4.453929 H        1 UNL1     0.2921
     46 H         5.487007   -5.945239   -3.094487 H        1 UNL1     0.2922
     47 H         1.698829   -1.021739   -2.820135 H        1 UNL1     0.2126
     48 H         -0.713606   -2.677035   0.660235 H        1 UNL1     0.2101
     49 H         2.469881   0.111038   0.200516 H        1 UNL1     0.2100
     50 H         1.202986   -3.615331   2.302124 H        1 UNL1     0.2102
@<TRIPOS>BOND
     1     1     2    1
     2     1     6    1
     3     2     3    1
     4     3     4    1
     5     3    29    1
     6     3    33    1
     7     4     5    1
     8     5     6    1
     9     5     7    1
    10     5    35    1
    11     7     8    1
    12     8     9   ar
    13     8    13   ar
    14     9    10   ar
    15     9    36    1
    16    10    11   ar
    17    10    26    1
    18    11    12   ar
    19    11    14    1
    20    12    13   ar
    21    12    17    1
    22    13    37    1
    23    14    15    1
    24    14    25    2
    25    15    16    1
    26    15    38    1
    27    15    39    1
    28    16    17    1
    29    16    18    1
    30    16    40    1
    31    18    19   ar
    32    18    23   ar
    33    19    20   ar
    34    19    41    1
    35    20    21   ar
    36    20    42    1
    37    21    22   ar
    38    21    24    1
    39    22    23   ar
    40    22    43    1
    41    23    44    1
    42    24    45    1
    43    26    46    1
    44    27    47    1
    45    28    48    1
    46    29    49    1
    47    30    50    1
    48     1    31    1
    49     1    27    1
    50     2    32    1
    51     2    28    1
    52     4    34    1
    53     4    30    1
