@<TRIPOS>MOLECULE
*****
 50 53 0 0 0
SMALL
GASTEIGER

@<TRIPOS>ATOM
     1 C         0.276533   -1.582777   1.479578 C.3        1 UNL1     0.1889
     2 C         -0.483555   -0.941905   0.287315 C.3        1 UNL1     0.1342
     3 C         -1.975779   -0.681239   0.543807 C.3        1 UNL1     0.1174
     4 C         -2.620703   -1.74857   1.431497 C.3        1 UNL1     0.1456
     5 C         -1.770669   -2.076463   2.672582 C.3        1 UNL1     0.2326
     6 O         -0.467935   -2.495662   2.272549 O.3        1 UNL1     -0.3076
     7 O         -1.749982   -1.01919   3.648833 O.3        1 UNL1     -0.4605
     8 C         -1.641276   -1.415692   4.969627 C.ar        1 UNL1     0.1310
     9 C         -2.371912   -2.447468   5.568717 C.ar        1 UNL1     0.0226
     10 C         -2.177258   -2.786056   6.913101 C.ar        1 UNL1     0.1343
     11 C         -1.229272   -2.11614   7.685355 C.ar        1 UNL1     0.1007
     12 C         -0.522744   -1.056846   7.109594 C.ar        1 UNL1     0.1389
     13 C         -0.720538   -0.714851   5.75854 C.ar        1 UNL1     0.0229
     14 C         -0.923304   -2.487941   9.086176 C.2        1 UNL1     0.1740
     15 C         0.273007   -1.813275   9.690506 C.3        1 UNL1     0.0520
     16 C         0.280322   -0.35699   9.246505 C.3        1 UNL1     0.1322
     17 O         0.355382   -0.260146   7.80704 O.3        1 UNL1     -0.4828
     18 C         -0.827433   0.486551   9.882146 C.ar        1 UNL1     -0.0067
     19 C         -2.156803   0.331924   9.438209 C.ar        1 UNL1     -0.0516
     20 C         -3.186352   1.12102   9.964818 C.ar        1 UNL1     -0.0198
     21 C         -2.898951   2.071187   10.928359 C.ar        1 UNL1     0.1169
     22 C         -1.605202   2.223858   11.409755 C.ar        1 UNL1     -0.0198
     23 C         -0.578559   1.422162   10.896586 C.ar        1 UNL1     -0.0516
     24 O         -3.921021   2.847196   11.390512 O.3        1 UNL1     -0.5068
     25 O         -1.541976   -3.347568   9.708086 O.2        1 UNL1     -0.2917
     26 O         -2.922687   -3.801468   7.437372 O.3        1 UNL1     -0.5058
     27 O         0.971251   -0.639512   2.279831 O.3        1 UNL1     -0.3648
     28 O         -0.391753   -1.829714   -0.842319 O.3        1 UNL1     -0.3841
     29 O         -2.181824   0.645024   1.034423 O.3        1 UNL1     -0.3863
     30 O         -2.804166   -2.956953   0.662184 O.3        1 UNL1     -0.3829
     31 H         1.068048   -2.205008   1.047825 H        1 UNL1     0.0937
     32 H         0.0   0.0   0.0 H        1 UNL1     0.0671
     33 H         -2.493905   -0.71785   -0.424658 H        1 UNL1     0.0649
     34 H         -3.615148   -1.418081   1.751276 H        1 UNL1     0.0683
     35 H         -2.267255   -2.951865   3.109563 H        1 UNL1     0.1085
     36 H         -3.083418   -3.042879   5.007141 H        1 UNL1     0.0691
     37 H         -0.158769   0.114583   5.334338 H        1 UNL1     0.0691
     38 H         1.165089   -2.339316   9.334138 H        1 UNL1     0.0385
     39 H         0.229261   -1.913643   10.780364 H        1 UNL1     0.0385
     40 H         1.221518   0.084731   9.60084 H        1 UNL1     0.0789
     41 H         -2.406792   -0.400581   8.676242 H        1 UNL1     0.0623
     42 H         -4.205444   1.000517   9.605735 H        1 UNL1     0.0654
     43 H         -1.371633   2.954505   12.174942 H        1 UNL1     0.0654
     44 H         0.418506   1.561104   11.303282 H        1 UNL1     0.0623
     45 H         -3.803184   3.747024   11.045344 H        1 UNL1     0.2921
     46 H         -2.35238   -4.382127   7.965573 H        1 UNL1     0.2922
     47 H         1.573034   -0.115304   1.733093 H        1 UNL1     0.2126
     48 H         -1.115901   -2.478135   -0.748015 H        1 UNL1     0.2101
     49 H         -2.26385   0.630195   2.001298 H        1 UNL1     0.2100
     50 H         -3.493574   -2.783496   -0.011865 H        1 UNL1     0.2102
@<TRIPOS>BOND
     1     1     2    1
     2     1     6    1
     3     2     3    1
     4     3     4    1
     5     3    29    1
     6     3    33    1
     7     4     5    1
     8     5     6    1
     9     5     7    1
    10     5    35    1
    11     7     8    1
    12     8     9   ar
    13     8    13   ar
    14     9    10   ar
    15     9    36    1
    16    10    11   ar
    17    10    26    1
    18    11    12   ar
    19    11    14    1
    20    12    13   ar
    21    12    17    1
    22    13    37    1
    23    14    15    1
    24    14    25    2
    25    15    16    1
    26    15    38    1
    27    15    39    1
    28    16    17    1
    29    16    18    1
    30    16    40    1
    31    18    19   ar
    32    18    23   ar
    33    19    20   ar
    34    19    41    1
    35    20    21   ar
    36    20    42    1
    37    21    22   ar
    38    21    24    1
    39    22    23   ar
    40    22    43    1
    41    23    44    1
    42    24    45    1
    43    26    46    1
    44    27    47    1
    45    28    48    1
    46    29    49    1
    47    30    50    1
    48     1    31    1
    49     1    27    1
    50     2    32    1
    51     2    28    1
    52     4    34    1
    53     4    30    1
