@<TRIPOS>MOLECULE
*****
 50 53 0 0 0
SMALL
GASTEIGER

@<TRIPOS>ATOM
     1 C         0.066861   -1.662097   1.415545 C.3        1 UNL1     0.1889
     2 C         -0.63894   -0.434875   0.778589 C.3        1 UNL1     0.1342
     3 C         -1.034544   0.665817   1.774801 C.3        1 UNL1     0.1174
     4 C         -1.456795   0.109621   3.136956 C.3        1 UNL1     0.1456
     5 C         -0.48323   -0.959613   3.665418 C.3        1 UNL1     0.2326
     6 O         -0.365979   -2.020155   2.719707 O.3        1 UNL1     -0.3076
     7 O         0.788125   -0.424456   4.076011 O.3        1 UNL1     -0.4605
     8 C         1.748404   -0.316072   3.086241 C.ar        1 UNL1     0.1310
     9 C         2.3906   0.867387   2.70636 C.ar        1 UNL1     0.0226
     10 C         3.364931   0.87156   1.701092 C.ar        1 UNL1     0.1343
     11 C         3.738113   -0.312811   1.067182 C.ar        1 UNL1     0.1007
     12 C         3.074718   -1.494196   1.409262 C.ar        1 UNL1     0.1389
     13 C         2.093193   -1.497685   2.418235 C.ar        1 UNL1     0.0229
     14 C         4.820257   -0.379627   0.057898 C.2        1 UNL1     0.1740
     15 C         5.239527   -1.760222   -0.35407 C.3        1 UNL1     0.0520
     16 C         3.992467   -2.623964   -0.483477 C.3        1 UNL1     0.1322
     17 O         3.285915   -2.696197   0.774552 O.3        1 UNL1     -0.4828
     18 C         3.11467   -2.262813   -1.684213 C.ar        1 UNL1     -0.0067
     19 C         3.545989   -1.264886   -2.582166 C.ar        1 UNL1     -0.0516
     20 C         2.745903   -0.877234   -3.663624 C.ar        1 UNL1     -0.0198
     21 C         1.51202   -1.473362   -3.853338 C.ar        1 UNL1     0.1169
     22 C         1.074394   -2.482547   -3.005478 C.ar        1 UNL1     -0.0198
     23 C         1.882347   -2.883335   -1.934667 C.ar        1 UNL1     -0.0516
     24 O         0.744086   -1.043376   -4.895351 O.3        1 UNL1     -0.5068
     25 O         5.407827   0.610422   -0.369946 O.2        1 UNL1     -0.2917
     26 O         3.952631   2.05944   1.376845 O.3        1 UNL1     -0.5058
     27 O         1.481958   -1.607884   1.329827 O.3        1 UNL1     -0.3648
     28 O         -1.846116   -0.885478   0.136415 O.3        1 UNL1     -0.3841
     29 O         -0.005958   1.652812   1.874733 O.3        1 UNL1     -0.3863
     30 O         -2.771887   -0.476141   3.022473 O.3        1 UNL1     -0.3829
     31 H         -0.207037   -2.531042   0.807273 H        1 UNL1     0.0937
     32 H         0.0   0.0   0.0 H        1 UNL1     0.0671
     33 H         -1.906153   1.193421   1.362914 H        1 UNL1     0.0649
     34 H         -1.530853   0.92357   3.866616 H        1 UNL1     0.0683
     35 H         -0.994389   -1.371363   4.544655 H        1 UNL1     0.1085
     36 H         2.185264   1.81119   3.199507 H        1 UNL1     0.0691
     37 H         1.590673   -2.43041   2.665197 H        1 UNL1     0.0691
     38 H         5.90976   -2.147787   0.420596 H        1 UNL1     0.0385
     39 H         5.800596   -1.699809   -1.292862 H        1 UNL1     0.0385
     40 H         4.329196   -3.652953   -0.668719 H        1 UNL1     0.0789
     41 H         4.506421   -0.77532   -2.449704 H        1 UNL1     0.0623
     42 H         3.084411   -0.098152   -4.342193 H        1 UNL1     0.0654
     43 H         0.116452   -2.966597   -3.15365 H        1 UNL1     0.0654
     44 H         1.513617   -3.682124   -1.298413 H        1 UNL1     0.0623
     45 H         0.533979   -0.105879   -4.755101 H        1 UNL1     0.2921
     46 H         4.917375   1.956647   1.387545 H        1 UNL1     0.2922
     47 H         1.860986   -2.483025   1.492082 H        1 UNL1     0.2126
     48 H         -1.571006   -1.400463   -0.646424 H        1 UNL1     0.2101
     49 H         0.864432   1.223609   1.874205 H        1 UNL1     0.2100
     50 H         -3.114584   -0.627044   3.927735 H        1 UNL1     0.2102
@<TRIPOS>BOND
     1     1     2    1
     2     1     6    1
     3     2     3    1
     4     3     4    1
     5     3    29    1
     6     3    33    1
     7     4     5    1
     8     5     6    1
     9     5     7    1
    10     5    35    1
    11     7     8    1
    12     8     9   ar
    13     8    13   ar
    14     9    10   ar
    15     9    36    1
    16    10    11   ar
    17    10    26    1
    18    11    12   ar
    19    11    14    1
    20    12    13   ar
    21    12    17    1
    22    13    37    1
    23    14    15    1
    24    14    25    2
    25    15    16    1
    26    15    38    1
    27    15    39    1
    28    16    17    1
    29    16    18    1
    30    16    40    1
    31    18    19   ar
    32    18    23   ar
    33    19    20   ar
    34    19    41    1
    35    20    21   ar
    36    20    42    1
    37    21    22   ar
    38    21    24    1
    39    22    23   ar
    40    22    43    1
    41    23    44    1
    42    24    45    1
    43    26    46    1
    44    27    47    1
    45    28    48    1
    46    29    49    1
    47    30    50    1
    48     1    31    1
    49     1    27    1
    50     2    32    1
    51     2    28    1
    52     4    34    1
    53     4    30    1
