@<TRIPOS>MOLECULE
*****
 50 53 0 0 0
SMALL
GASTEIGER

@<TRIPOS>ATOM
     1 C         0.580235   -1.857975   0.99099 C.3        1 UNL1     0.1889
     2 C         0.478428   -0.951068   -0.264835 C.3        1 UNL1     0.1342
     3 C         -0.273594   -1.57764   -1.449038 C.3        1 UNL1     0.1174
     4 C         -0.05179   -3.088088   -1.560704 C.3        1 UNL1     0.1456
     5 C         -0.203699   -3.8085   -0.20856 C.3        1 UNL1     0.2326
     6 O         0.69965   -3.251105   0.743355 O.3        1 UNL1     -0.3076
     7 O         -1.562222   -3.860713   0.26368 O.3        1 UNL1     -0.4605
     8 C         -1.750634   -4.441448   1.504959 C.ar        1 UNL1     0.1310
     9 C         -0.734701   -4.928793   2.334221 C.ar        1 UNL1     0.0226
     10 C         -1.026256   -5.485723   3.585112 C.ar        1 UNL1     0.1343
     11 C         -2.34006   -5.54717   4.047696 C.ar        1 UNL1     0.1007
     12 C         -3.366904   -5.101216   3.211335 C.ar        1 UNL1     0.1389
     13 C         -3.073723   -4.543689   1.952511 C.ar        1 UNL1     0.0229
     14 C         -2.696769   -6.04838   5.395175 C.2        1 UNL1     0.1740
     15 C         -4.12296   -5.835945   5.810386 C.3        1 UNL1     0.0520
     16 C         -5.019671   -6.107371   4.610304 C.3        1 UNL1     0.1322
     17 O         -4.702573   -5.213424   3.520636 O.3        1 UNL1     -0.4828
     18 C         -5.093228   -7.584941   4.217749 C.ar        1 UNL1     -0.0067
     19 C         -5.743926   -8.497306   5.073551 C.ar        1 UNL1     -0.0516
     20 C         -5.78802   -9.862788   4.767808 C.ar        1 UNL1     -0.0198
     21 C         -5.180234   -10.328416   3.615587 C.ar        1 UNL1     0.1169
     22 C         -4.560707   -9.449939   2.73621 C.ar        1 UNL1     -0.0198
     23 C         -4.532454   -8.08191   3.032444 C.ar        1 UNL1     -0.0516
     24 O         -5.210899   -11.669738   3.369993 O.3        1 UNL1     -0.5068
     25 O         -1.880932   -6.536234   6.172924 O.2        1 UNL1     -0.2917
     26 O         0.010195   -5.943903   4.344997 O.3        1 UNL1     -0.5058
     27 O         -0.410178   -1.582844   1.96883 O.3        1 UNL1     -0.3648
     28 O         1.810993   -0.64626   -0.716573 O.3        1 UNL1     -0.3841
     29 O         -1.657378   -1.222413   -1.416068 O.3        1 UNL1     -0.3863
     30 O         1.27614   -3.3354   -2.07171 O.3        1 UNL1     -0.3829
     31 H         1.524547   -1.603795   1.484696 H        1 UNL1     0.0937
     32 H         0.0   0.0   0.0 H        1 UNL1     0.0671
     33 H         0.120784   -1.129447   -2.371701 H        1 UNL1     0.0649
     34 H         -0.757371   -3.517486   -2.280547 H        1 UNL1     0.0683
     35 H         0.139225   -4.830436   -0.413322 H        1 UNL1     0.1085
     36 H         0.311165   -4.858868   2.056018 H        1 UNL1     0.0691
     37 H         -3.891266   -4.204775   1.319855 H        1 UNL1     0.0691
     38 H         -4.21852   -4.798511   6.148209 H        1 UNL1     0.0385
     39 H         -4.352405   -6.493485   6.655829 H        1 UNL1     0.0385
     40 H         -6.042506   -5.832885   4.901829 H        1 UNL1     0.0789
     41 H         -6.220694   -8.158117   5.988588 H        1 UNL1     0.0623
     42 H         -6.282538   -10.557973   5.441737 H        1 UNL1     0.0654
     43 H         -4.094668   -9.801874   1.823599 H        1 UNL1     0.0654
     44 H         -4.049039   -7.422861   2.317734 H        1 UNL1     0.0623
     45 H         -4.930764   -12.13534   4.174639 H        1 UNL1     0.2921
     46 H         0.807472   -6.01354   3.796443 H        1 UNL1     0.2922
     47 H         -0.418222   -0.639009   2.180894 H        1 UNL1     0.2126
     48 H         2.187796   -0.016953   -0.071806 H        1 UNL1     0.2101
     49 H         -2.20114   -1.991276   -1.65052 H        1 UNL1     0.2100
     50 H         1.306281   -3.01931   -2.998474 H        1 UNL1     0.2102
@<TRIPOS>BOND
     1     1     2    1
     2     1     6    1
     3     2     3    1
     4     3     4    1
     5     3    29    1
     6     3    33    1
     7     4     5    1
     8     5     6    1
     9     5     7    1
    10     5    35    1
    11     7     8    1
    12     8     9   ar
    13     8    13   ar
    14     9    10   ar
    15     9    36    1
    16    10    11   ar
    17    10    26    1
    18    11    12   ar
    19    11    14    1
    20    12    13   ar
    21    12    17    1
    22    13    37    1
    23    14    15    1
    24    14    25    2
    25    15    16    1
    26    15    38    1
    27    15    39    1
    28    16    17    1
    29    16    18    1
    30    16    40    1
    31    18    19   ar
    32    18    23   ar
    33    19    20   ar
    34    19    41    1
    35    20    21   ar
    36    20    42    1
    37    21    22   ar
    38    21    24    1
    39    22    23   ar
    40    22    43    1
    41    23    44    1
    42    24    45    1
    43    26    46    1
    44    27    47    1
    45    28    48    1
    46    29    49    1
    47    30    50    1
    48     1    31    1
    49     1    27    1
    50     2    32    1
    51     2    28    1
    52     4    34    1
    53     4    30    1
