@<TRIPOS>MOLECULE
*****
 50 53 0 0 0
SMALL
GASTEIGER

@<TRIPOS>ATOM
     1 C         -0.332336   -1.328269   1.701781 C.3        1 UNL1     0.1889
     2 C         -0.462528   -0.975374   0.195642 C.3        1 UNL1     0.1342
     3 C         -1.903269   -0.96279   -0.337812 C.3        1 UNL1     0.1174
     4 C         -2.789728   -2.022   0.322022 C.3        1 UNL1     0.1456
     5 C         -2.638382   -2.047303   1.853955 C.3        1 UNL1     0.2326
     6 O         -1.273556   -2.265425   2.204014 O.3        1 UNL1     -0.3076
     7 O         -3.213377   -0.900215   2.505792 O.3        1 UNL1     -0.4605
     8 C         -3.723133   -1.115574   3.773584 C.ar        1 UNL1     0.1310
     9 C         -4.539418   -2.188576   4.147275 C.ar        1 UNL1     0.0226
     10 C         -4.992428   -2.328857   5.464471 C.ar        1 UNL1     0.1343
     11 C         -4.62022   -1.411576   6.446254 C.ar        1 UNL1     0.1007
     12 C         -3.839132   -0.313476   6.076306 C.ar        1 UNL1     0.1389
     13 C         -3.38594   -0.171214   4.751236 C.ar        1 UNL1     0.0229
     14 C         -5.000932   -1.557288   7.870326 C.2        1 UNL1     0.1740
     15 C         -4.332105   -0.608897   8.821522 C.3        1 UNL1     0.0520
     16 C         -4.262891   0.76302   8.165009 C.3        1 UNL1     0.1322
     17 O         -3.504258   0.706103   6.936878 O.3        1 UNL1     -0.4828
     18 C         -5.622189   1.455317   8.039474 C.ar        1 UNL1     -0.0067
     19 C         -6.001278   2.017979   6.803384 C.ar        1 UNL1     -0.0516
     20 C         -7.216598   2.699394   6.666879 C.ar        1 UNL1     -0.0198
     21 C         -8.056348   2.831059   7.758351 C.ar        1 UNL1     0.1169
     22 C         -7.726042   2.259005   8.980027 C.ar        1 UNL1     -0.0198
     23 C         -6.519264   1.561637   9.112016 C.ar        1 UNL1     -0.0516
     24 O         -9.214096   3.53395   7.597223 O.3        1 UNL1     -0.5068
     25 O         -5.749666   -2.438997   8.283208 O.2        1 UNL1     -0.2917
     26 O         -5.786667   -3.397201   5.763485 O.3        1 UNL1     -0.5058
     27 O         -0.227117   -0.190029   2.542094 O.3        1 UNL1     -0.3648
     28 O         0.268084   -1.953863   -0.566901 O.3        1 UNL1     -0.3841
     29 O         -2.460653   0.350859   -0.26178 O.3        1 UNL1     -0.3863
     30 O         -2.442158   -3.322828   -0.200214 O.3        1 UNL1     -0.3829
     31 H         0.628282   -1.841181   1.820999 H        1 UNL1     0.0937
     32 H         0.0   0.0   0.0 H        1 UNL1     0.0671
     33 H         -1.866084   -1.202367   -1.409699 H        1 UNL1     0.0649
     34 H         -3.839797   -1.843615   0.065244 H        1 UNL1     0.0683
     35 H         -3.193199   -2.943131   2.159814 H        1 UNL1     0.1085
     36 H         -4.817787   -2.965365   3.44355 H        1 UNL1     0.0691
     37 H         -2.779955   0.693239   4.488563 H        1 UNL1     0.0691
     38 H         -3.329737   -0.998939   9.028045 H        1 UNL1     0.0385
     39 H         -4.892295   -0.589791   9.762586 H        1 UNL1     0.0385
     40 H         -3.668031   1.408311   8.825509 H        1 UNL1     0.0789
     41 H         -5.355475   1.936202   5.933958 H        1 UNL1     0.0623
     42 H         -7.49221   3.139147   5.711543 H        1 UNL1     0.0654
     43 H         -8.383247   2.343158   9.837295 H        1 UNL1     0.0654
     44 H         -6.298085   1.118401   10.078177 H        1 UNL1     0.0623
     45 H         -8.988131   4.441487   7.336392 H        1 UNL1     0.2921
     46 H         -5.382775   -3.909646   6.481596 H        1 UNL1     0.2922
     47 H         0.515937   0.363665   2.264327 H        1 UNL1     0.2126
     48 H         1.200958   -1.888075   -0.285567 H        1 UNL1     0.2101
     49 H         -2.02165   0.933186   -0.902065 H        1 UNL1     0.2100
     50 H         -2.675251   -3.337893   -1.151609 H        1 UNL1     0.2102
@<TRIPOS>BOND
     1     1     2    1
     2     1     6    1
     3     2     3    1
     4     3     4    1
     5     3    29    1
     6     3    33    1
     7     4     5    1
     8     5     6    1
     9     5     7    1
    10     5    35    1
    11     7     8    1
    12     8     9   ar
    13     8    13   ar
    14     9    10   ar
    15     9    36    1
    16    10    11   ar
    17    10    26    1
    18    11    12   ar
    19    11    14    1
    20    12    13   ar
    21    12    17    1
    22    13    37    1
    23    14    15    1
    24    14    25    2
    25    15    16    1
    26    15    38    1
    27    15    39    1
    28    16    17    1
    29    16    18    1
    30    16    40    1
    31    18    19   ar
    32    18    23   ar
    33    19    20   ar
    34    19    41    1
    35    20    21   ar
    36    20    42    1
    37    21    22   ar
    38    21    24    1
    39    22    23   ar
    40    22    43    1
    41    23    44    1
    42    24    45    1
    43    26    46    1
    44    27    47    1
    45    28    48    1
    46    29    49    1
    47    30    50    1
    48     1    31    1
    49     1    27    1
    50     2    32    1
    51     2    28    1
    52     4    34    1
    53     4    30    1
