@<TRIPOS>MOLECULE
*****
 50 53 0 0 0
SMALL
GASTEIGER

@<TRIPOS>ATOM
     1 C         -0.325243   -1.367756   1.671605 C.3        1 UNL1     0.1889
     2 C         -0.461873   -0.979645   0.174728 C.3        1 UNL1     0.1342
     3 C         -1.904904   -0.95442   -0.352047 C.3        1 UNL1     0.1174
     4 C         -2.788715   -2.028716   0.286611 C.3        1 UNL1     0.1456
     5 C         -2.630753   -2.089931   1.816861 C.3        1 UNL1     0.2326
     6 O         -1.264471   -2.316333   2.155804 O.3        1 UNL1     -0.3076
     7 O         -3.202695   -0.958379   2.497884 O.3        1 UNL1     -0.4605
     8 C         -3.71764   -1.205838   3.757694 C.ar        1 UNL1     0.1310
     9 C         -4.540032   -2.284831   4.099378 C.ar        1 UNL1     0.0226
     10 C         -4.998055   -2.45885   5.410802 C.ar        1 UNL1     0.1343
     11 C         -4.624952   -1.570395   6.418415 C.ar        1 UNL1     0.1007
     12 C         -3.837655   -0.466254   6.081045 C.ar        1 UNL1     0.1389
     13 C         -3.379414   -0.29004   4.761804 C.ar        1 UNL1     0.0229
     14 C         -5.011058   -1.753092   7.836759 C.2        1 UNL1     0.1740
     15 C         -4.341097   -0.834079   8.815594 C.3        1 UNL1     0.0520
     16 C         -4.263466   0.554882   8.196952 C.3        1 UNL1     0.1322
     17 O         -3.501017   0.527935   6.970162 O.3        1 UNL1     -0.4828
     18 C         -5.619178   1.256633   8.085985 C.ar        1 UNL1     -0.0067
     19 C         -5.694047   2.526209   7.477065 C.ar        1 UNL1     -0.0516
     20 C         -6.909891   3.216138   7.401672 C.ar        1 UNL1     -0.0198
     21 C         -8.053975   2.651743   7.936796 C.ar        1 UNL1     0.1169
     22 C         -8.018575   1.388533   8.512892 C.ar        1 UNL1     -0.0198
     23 C         -6.806463   0.690425   8.571945 C.ar        1 UNL1     -0.0516
     24 O         -9.212296   3.369586   7.878545 O.3        1 UNL1     -0.5068
     25 O         -5.765161   -2.642245   8.223049 O.2        1 UNL1     -0.2917
     26 O         -5.798131   -3.531254   5.678034 O.3        1 UNL1     -0.5058
     27 O         -0.216164   -0.249534   2.5379 O.3        1 UNL1     -0.3648
     28 O         0.265239   -1.940066   -0.613692 O.3        1 UNL1     -0.3841
     29 O         -2.461691   0.357141   -0.242838 O.3        1 UNL1     -0.3863
     30 O         -2.443666   -3.316981   -0.267467 O.3        1 UNL1     -0.3829
     31 H         0.635779   -1.883417   1.774613 H        1 UNL1     0.0937
     32 H         0.0   0.0   0.0 H        1 UNL1     0.0671
     33 H         -1.872401   -1.168813   -1.429404 H        1 UNL1     0.0649
     34 H         -3.839848   -1.844258   0.038629 H        1 UNL1     0.0683
     35 H         -3.184422   -2.992627   2.104038 H        1 UNL1     0.1085
     36 H         -4.819585   -3.040859   3.373849 H        1 UNL1     0.0691
     37 H         -2.768637   0.578432   4.524738 H        1 UNL1     0.0691
     38 H         -3.341204   -1.234243   9.014615 H        1 UNL1     0.0385
     39 H         -4.904323   -0.838027   9.75503 H        1 UNL1     0.0385
     40 H         -3.667881   1.179173   8.876701 H        1 UNL1     0.0789
     41 H         -4.80845   2.994707   7.057685 H        1 UNL1     0.0623
     42 H         -6.952395   4.199651   6.940254 H        1 UNL1     0.0654
     43 H         -8.911513   0.930766   8.921575 H        1 UNL1     0.0654
     44 H         -6.81753   -0.298703   9.019549 H        1 UNL1     0.0623
     45 H         -9.093666   4.185375   8.391509 H        1 UNL1     0.2921
     46 H         -5.41089   -4.052026   6.399319 H        1 UNL1     0.2922
     47 H         0.512878   0.321263   2.257636 H        1 UNL1     0.2126
     48 H         1.205561   -1.851234   -0.365426 H        1 UNL1     0.2101
     49 H         -2.031456   0.95219   -0.877352 H        1 UNL1     0.2100
     50 H         -2.686086   -3.311678   -1.216634 H        1 UNL1     0.2102
@<TRIPOS>BOND
     1     1     2    1
     2     1     6    1
     3     2     3    1
     4     3     4    1
     5     3    29    1
     6     3    33    1
     7     4     5    1
     8     5     6    1
     9     5     7    1
    10     5    35    1
    11     7     8    1
    12     8     9   ar
    13     8    13   ar
    14     9    10   ar
    15     9    36    1
    16    10    11   ar
    17    10    26    1
    18    11    12   ar
    19    11    14    1
    20    12    13   ar
    21    12    17    1
    22    13    37    1
    23    14    15    1
    24    14    25    2
    25    15    16    1
    26    15    38    1
    27    15    39    1
    28    16    17    1
    29    16    18    1
    30    16    40    1
    31    18    19   ar
    32    18    23   ar
    33    19    20   ar
    34    19    41    1
    35    20    21   ar
    36    20    42    1
    37    21    22   ar
    38    21    24    1
    39    22    23   ar
    40    22    43    1
    41    23    44    1
    42    24    45    1
    43    26    46    1
    44    27    47    1
    45    28    48    1
    46    29    49    1
    47    30    50    1
    48     1    31    1
    49     1    27    1
    50     2    32    1
    51     2    28    1
    52     4    34    1
    53     4    30    1
