@<TRIPOS>MOLECULE
*****
 50 53 0 0 0
SMALL
GASTEIGER

@<TRIPOS>ATOM
     1 C         -0.326303   -1.366462   1.672457 C.3        1 UNL1     0.1889
     2 C         -0.462313   -0.979342   0.175267 C.3        1 UNL1     0.1342
     3 C         -1.905168   -0.953917   -0.351977 C.3        1 UNL1     0.1174
     4 C         -2.789601   -2.02742   0.287154 C.3        1 UNL1     0.1456
     5 C         -2.632142   -2.08763   1.817495 C.3        1 UNL1     0.2326
     6 O         -1.266055   -2.314331   2.157024 O.3        1 UNL1     -0.3076
     7 O         -3.203852   -0.955378   2.497549 O.3        1 UNL1     -0.4605
     8 C         -3.719288   -1.201756   3.757371 C.ar        1 UNL1     0.1310
     9 C         -4.542211   -2.280187   4.09955 C.ar        1 UNL1     0.0226
     10 C         -5.000712   -2.453111   5.410952 C.ar        1 UNL1     0.1343
     11 C         -4.627575   -1.5641   6.418062 C.ar        1 UNL1     0.1007
     12 C         -3.839739   -0.460504   6.080167 C.ar        1 UNL1     0.1389
     13 C         -3.381016   -0.28539   4.760948 C.ar        1 UNL1     0.0229
     14 C         -5.014196   -1.745655   7.836411 C.2        1 UNL1     0.1740
     15 C         -4.34418   -0.826223   8.814815 C.3        1 UNL1     0.0520
     16 C         -4.26581   0.562276   8.195229 C.3        1 UNL1     0.1322
     17 O         -3.502988   0.534174   6.968696 O.3        1 UNL1     -0.4828
     18 C         -5.621212   1.264482   8.083348 C.ar        1 UNL1     -0.0067
     19 C         -5.695391   2.533662   7.473518 C.ar        1 UNL1     -0.0516
     20 C         -6.91094   3.224015   7.397264 C.ar        1 UNL1     -0.0198
     21 C         -8.055413   2.660443   7.932424 C.ar        1 UNL1     0.1169
     22 C         -8.02069   1.397621   8.509411 C.ar        1 UNL1     -0.0198
     23 C         -6.808871   0.699079   8.569331 C.ar        1 UNL1     -0.0516
     24 O         -9.213434   3.3787   7.873309 O.3        1 UNL1     -0.5068
     25 O         -5.768769   -2.634242   8.223086 O.2        1 UNL1     -0.2917
     26 O         -5.801293   -3.525014   5.678681 O.3        1 UNL1     -0.5058
     27 O         -0.217055   -0.247678   2.538006 O.3        1 UNL1     -0.3648
     28 O         0.264669   -1.940598   -0.612255 O.3        1 UNL1     -0.3841
     29 O         -2.461475   0.357938   -0.243857 O.3        1 UNL1     -0.3863
     30 O         -2.444885   -3.316207   -0.265917 O.3        1 UNL1     -0.3829
     31 H         0.634484   -1.882427   1.776126 H        1 UNL1     0.0937
     32 H         0.0   0.0   0.0 H        1 UNL1     0.0671
     33 H         -1.872413   -1.169075   -1.429174 H        1 UNL1     0.0649
     34 H         -3.840584   -1.842722   0.038714 H        1 UNL1     0.0683
     35 H         -3.186255   -2.989907   2.105129 H        1 UNL1     0.1085
     36 H         -4.821833   -3.036611   3.374461 H        1 UNL1     0.0691
     37 H         -2.769824   0.582676   4.523467 H        1 UNL1     0.0691
     38 H         -3.344507   -1.22664   9.014428 H        1 UNL1     0.0385
     39 H         -4.907701   -0.829294   9.754077 H        1 UNL1     0.0385
     40 H         -3.670192   1.186807   8.874728 H        1 UNL1     0.0789
     41 H         -4.809479   3.001519   7.054089 H        1 UNL1     0.0623
     42 H         -6.952914   4.207223   6.935146 H        1 UNL1     0.0654
     43 H         -8.913935   0.940491   8.918135 H        1 UNL1     0.0654
     44 H         -6.820467   -0.289732   9.017621 H        1 UNL1     0.0623
     45 H         -9.094644   4.1948   8.385741 H        1 UNL1     0.2921
     46 H         -5.414482   -4.045435   6.400451 H        1 UNL1     0.2922
     47 H         0.512299   0.322637   2.257572 H        1 UNL1     0.2126
     48 H         1.209748   -1.820901   -0.39724 H        1 UNL1     0.2101
     49 H         -2.030807   0.952375   -0.878652 H        1 UNL1     0.2100
     50 H         -2.707744   -3.319389   -1.209638 H        1 UNL1     0.2102
@<TRIPOS>BOND
     1     1     2    1
     2     1     6    1
     3     2     3    1
     4     3     4    1
     5     3    29    1
     6     3    33    1
     7     4     5    1
     8     5     6    1
     9     5     7    1
    10     5    35    1
    11     7     8    1
    12     8     9   ar
    13     8    13   ar
    14     9    10   ar
    15     9    36    1
    16    10    11   ar
    17    10    26    1
    18    11    12   ar
    19    11    14    1
    20    12    13   ar
    21    12    17    1
    22    13    37    1
    23    14    15    1
    24    14    25    2
    25    15    16    1
    26    15    38    1
    27    15    39    1
    28    16    17    1
    29    16    18    1
    30    16    40    1
    31    18    19   ar
    32    18    23   ar
    33    19    20   ar
    34    19    41    1
    35    20    21   ar
    36    20    42    1
    37    21    22   ar
    38    21    24    1
    39    22    23   ar
    40    22    43    1
    41    23    44    1
    42    24    45    1
    43    26    46    1
    44    27    47    1
    45    28    48    1
    46    29    49    1
    47    30    50    1
    48     1    31    1
    49     1    27    1
    50     2    32    1
    51     2    28    1
    52     4    34    1
    53     4    30    1
