@<TRIPOS>MOLECULE
*****
 50 53 0 0 0
SMALL
GASTEIGER

@<TRIPOS>ATOM
     1 C         0.940823   -1.791327   -0.822682 C.3        1 UNL1     0.1889
     2 C         -0.273598   -0.839698   -0.650856 C.3        1 UNL1     0.1342
     3 C         -1.540498   -1.510233   -0.097852 C.3        1 UNL1     0.1174
     4 C         -1.70819   -2.952629   -0.582095 C.3        1 UNL1     0.1456
     5 C         -0.408053   -3.769064   -0.466163 C.3        1 UNL1     0.2326
     6 O         0.635637   -3.127164   -1.195235 O.3        1 UNL1     -0.3076
     7 O         -0.043421   -4.076534   0.891712 O.3        1 UNL1     -0.4605
     8 C         0.618011   -5.275978   1.085024 C.ar        1 UNL1     0.1310
     9 C         0.252026   -6.503156   0.52165 C.ar        1 UNL1     0.0226
     10 C         0.998392   -7.662382   0.764624 C.ar        1 UNL1     0.1343
     11 C         2.143672   -7.617723   1.558462 C.ar        1 UNL1     0.1007
     12 C         2.495853   -6.406451   2.159772 C.ar        1 UNL1     0.1389
     13 C         1.743717   -5.241549   1.917443 C.ar        1 UNL1     0.0229
     14 C         3.016263   -8.793997   1.78009 C.2        1 UNL1     0.1740
     15 C         4.318493   -8.515315   2.471525 C.3        1 UNL1     0.0520
     16 C         4.067555   -7.50498   3.582476 C.3        1 UNL1     0.1322
     17 O         3.540268   -6.272087   3.044877 O.3        1 UNL1     -0.4828
     18 C         3.276082   -8.071783   4.763589 C.ar        1 UNL1     -0.0067
     19 C         3.918695   -8.250518   6.005892 C.ar        1 UNL1     -0.0516
     20 C         3.237259   -8.810454   7.093126 C.ar        1 UNL1     -0.0198
     21 C         1.918146   -9.201624   6.949062 C.ar        1 UNL1     0.1169
     22 C         1.24831   -9.007626   5.748011 C.ar        1 UNL1     -0.0198
     23 C         1.924035   -8.430736   4.666046 C.ar        1 UNL1     -0.0516
     24 O         1.298377   -9.777967   8.018695 O.3        1 UNL1     -0.5068
     25 O         2.752666   -9.919271   1.364447 O.2        1 UNL1     -0.2917
     26 O         0.587393   -8.827689   0.186071 O.3        1 UNL1     -0.5058
     27 O         1.852839   -1.745765   0.263107 O.3        1 UNL1     -0.3648
     28 O         -0.607522   -0.28926   -1.938575 O.3        1 UNL1     -0.3841
     29 O         -1.595488   -1.394329   1.325409 O.3        1 UNL1     -0.3863
     30 O         -2.128294   -2.942664   -1.963798 O.3        1 UNL1     -0.3829
     31 H         1.516559   -1.413113   -1.674481 H        1 UNL1     0.0937
     32 H         0.0   0.0   0.0 H        1 UNL1     0.0671
     33 H         -2.407706   -0.947156   -0.470162 H        1 UNL1     0.0649
     34 H         -2.499522   -3.449565   -0.010039 H        1 UNL1     0.0683
     35 H         -0.635552   -4.704829   -0.991965 H        1 UNL1     0.1085
     36 H         -0.595361   -6.59252   -0.149223 H        1 UNL1     0.0691
     37 H         2.038188   -4.311254   2.398412 H        1 UNL1     0.0691
     38 H         5.011741   -8.115887   1.723601 H        1 UNL1     0.0385
     39 H         4.731029   -9.45575   2.852544 H        1 UNL1     0.0385
     40 H         5.047   -7.227806   3.99525 H        1 UNL1     0.0789
     41 H         4.956371   -7.960029   6.141894 H        1 UNL1     0.0623
     42 H         3.747295   -8.954083   8.042466 H        1 UNL1     0.0654
     43 H         0.210886   -9.29649   5.628765 H        1 UNL1     0.0654
     44 H         1.366715   -8.284271   3.745835 H        1 UNL1     0.0623
     45 H         1.979633   -10.111488   8.624806 H        1 UNL1     0.2921
     46 H         1.361763   -9.337938   -0.099252 H        1 UNL1     0.2922
     47 H         2.50778   -2.452891   0.180134 H        1 UNL1     0.2126
     48 H         -0.478258   0.676447   -1.871999 H        1 UNL1     0.2101
     49 H         -1.272694   -2.212338   1.735846 H        1 UNL1     0.2100
     50 H         -1.758686   -2.13939   -2.385526 H        1 UNL1     0.2102
@<TRIPOS>BOND
     1     1     2    1
     2     1     6    1
     3     2     3    1
     4     3     4    1
     5     3    29    1
     6     3    33    1
     7     4     5    1
     8     5     6    1
     9     5     7    1
    10     5    35    1
    11     7     8    1
    12     8     9   ar
    13     8    13   ar
    14     9    10   ar
    15     9    36    1
    16    10    11   ar
    17    10    26    1
    18    11    12   ar
    19    11    14    1
    20    12    13   ar
    21    12    17    1
    22    13    37    1
    23    14    15    1
    24    14    25    2
    25    15    16    1
    26    15    38    1
    27    15    39    1
    28    16    17    1
    29    16    18    1
    30    16    40    1
    31    18    19   ar
    32    18    23   ar
    33    19    20   ar
    34    19    41    1
    35    20    21   ar
    36    20    42    1
    37    21    22   ar
    38    21    24    1
    39    22    23   ar
    40    22    43    1
    41    23    44    1
    42    24    45    1
    43    26    46    1
    44    27    47    1
    45    28    48    1
    46    29    49    1
    47    30    50    1
    48     1    31    1
    49     1    27    1
    50     2    32    1
    51     2    28    1
    52     4    34    1
    53     4    30    1
