@<TRIPOS>MOLECULE
*****
 50 53 0 0 0
SMALL
GASTEIGER

@<TRIPOS>ATOM
     1 C         0.32363   -0.626379   2.067297 C.3        1 UNL1     0.1889
     2 C         0.018475   -0.933241   0.576439 C.3        1 UNL1     0.1342
     3 C         -1.291979   -1.697802   0.334321 C.3        1 UNL1     0.1174
     4 C         -1.606979   -2.702401   1.44548 C.3        1 UNL1     0.1456
     5 C         -1.426482   -2.102681   2.851936 C.3        1 UNL1     0.2326
     6 O         -0.097701   -1.608215   3.002644 O.3        1 UNL1     -0.3076
     7 O         -2.433319   -1.133291   3.195274 O.3        1 UNL1     -0.4605
     8 C         -2.768696   -1.056143   4.535087 C.ar        1 UNL1     0.1310
     9 C         -3.021208   -2.148865   5.371446 C.ar        1 UNL1     0.0226
     10 C         -3.337611   -1.967809   6.723116 C.ar        1 UNL1     0.1343
     11 C         -3.38586   -0.68941   7.277379 C.ar        1 UNL1     0.1007
     12 C         -3.175908   0.411573   6.44279 C.ar        1 UNL1     0.1389
     13 C         -2.860384   0.229378   5.083128 C.ar        1 UNL1     0.0229
     14 C         -3.632655   -0.444761   8.717308 C.2        1 UNL1     0.1740
     15 C         -3.428979   0.967998   9.180098 C.3        1 UNL1     0.0520
     16 C         -3.984787   1.907506   8.118797 C.3        1 UNL1     0.1322
     17 O         -3.305315   1.716522   6.858276 O.3        1 UNL1     -0.4828
     18 C         -5.51241   1.895431   8.024208 C.ar        1 UNL1     -0.0067
     19 C         -6.127107   1.76631   6.761794 C.ar        1 UNL1     -0.0516
     20 C         -7.520936   1.799155   6.634806 C.ar        1 UNL1     -0.0198
     21 C         -8.309084   1.9676   7.759206 C.ar        1 UNL1     0.1169
     22 C         -7.734354   2.063929   9.019859 C.ar        1 UNL1     -0.0198
     23 C         -6.341269   2.012601   9.149222 C.ar        1 UNL1     -0.0516
     24 O         -9.66122   2.032752   7.59222 O.3        1 UNL1     -0.5068
     25 O         -3.907856   -1.335415   9.516986 O.2        1 UNL1     -0.2917
     26 O         -3.573999   -3.075027   7.484545 O.3        1 UNL1     -0.5058
     27 O         -0.064612   0.678372   2.466895 O.3        1 UNL1     -0.3648
     28 O         1.088357   -1.738956   0.048348 O.3        1 UNL1     -0.3841
     29 O         -2.368926   -0.792036   0.08551 O.3        1 UNL1     -0.3863
     30 O         -0.73377   -3.845004   1.312606 O.3        1 UNL1     -0.3829
     31 H         1.414305   -0.626438   2.169803 H        1 UNL1     0.0937
     32 H         -0.0   0.0   0.0 H        1 UNL1     0.0671
     33 H         -1.176581   -2.27572   -0.593263 H        1 UNL1     0.0649
     34 H         -2.633692   -3.069379   1.337832 H        1 UNL1     0.0683
     35 H         -1.523454   -2.966037   3.52208 H        1 UNL1     0.1085
     36 H         -2.944518   -3.16999   5.014313 H        1 UNL1     0.0691
     37 H         -2.702482   1.102947   4.454291 H        1 UNL1     0.0691
     38 H         -2.353029   1.119642   9.31744 H        1 UNL1     0.0385
     39 H         -3.919887   1.102273   10.150025 H        1 UNL1     0.0385
     40 H         -3.720429   2.929895   8.421048 H        1 UNL1     0.0789
     41 H         -5.530212   1.642222   5.862923 H        1 UNL1     0.0623
     42 H         -7.982573   1.710474   5.65448 H        1 UNL1     0.0654
     43 H         -8.342794   2.181001   9.908682 H        1 UNL1     0.0654
     44 H         -5.926726   2.080343   10.150427 H        1 UNL1     0.0623
     45 H         -9.863908   2.794747   7.025654 H        1 UNL1     0.2921
     46 H         -2.971302   -3.079466   8.244906 H        1 UNL1     0.2922
     47 H         0.350375   1.340556   1.896668 H        1 UNL1     0.2126
     48 H         1.901963   -1.203126   0.116651 H        1 UNL1     0.2101
     49 H         -2.245308   -0.360781   -0.775031 H        1 UNL1     0.2100
     50 H         -0.957177   -4.299294   0.473903 H        1 UNL1     0.2102
@<TRIPOS>BOND
     1     1     2    1
     2     1     6    1
     3     2     3    1
     4     3     4    1
     5     3    29    1
     6     3    33    1
     7     4     5    1
     8     5     6    1
     9     5     7    1
    10     5    35    1
    11     7     8    1
    12     8     9   ar
    13     8    13   ar
    14     9    10   ar
    15     9    36    1
    16    10    11   ar
    17    10    26    1
    18    11    12   ar
    19    11    14    1
    20    12    13   ar
    21    12    17    1
    22    13    37    1
    23    14    15    1
    24    14    25    2
    25    15    16    1
    26    15    38    1
    27    15    39    1
    28    16    17    1
    29    16    18    1
    30    16    40    1
    31    18    19   ar
    32    18    23   ar
    33    19    20   ar
    34    19    41    1
    35    20    21   ar
    36    20    42    1
    37    21    22   ar
    38    21    24    1
    39    22    23   ar
    40    22    43    1
    41    23    44    1
    42    24    45    1
    43    26    46    1
    44    27    47    1
    45    28    48    1
    46    29    49    1
    47    30    50    1
    48     1    31    1
    49     1    27    1
    50     2    32    1
    51     2    28    1
    52     4    34    1
    53     4    30    1
