@<TRIPOS>MOLECULE
*****
 50 53 0 0 0
SMALL
GASTEIGER

@<TRIPOS>ATOM
     1 C         -2.167842   -0.228749   -0.137616 C.3        1 UNL1     0.1889
     2 C         -0.778665   0.052111   -0.771055 C.3        1 UNL1     0.1342
     3 C         -0.668493   1.397698   -1.50435 C.3        1 UNL1     0.1174
     4 C         -1.969694   1.801659   -2.202066 C.3        1 UNL1     0.1456
     5 C         -3.203411   1.625748   -1.297984 C.3        1 UNL1     0.2326
     6 O         -3.28859   0.275089   -0.849281 O.3        1 UNL1     -0.3076
     7 O         -3.269545   2.583464   -0.225731 O.3        1 UNL1     -0.4605
     8 C         -4.539481   2.950992   0.181348 C.ar        1 UNL1     0.1310
     9 C         -5.59684   3.290078   -0.669719 C.ar        1 UNL1     0.0226
     10 C         -6.854808   3.632937   -0.159948 C.ar        1 UNL1     0.1343
     11 C         -7.09282   3.621917   1.213759 C.ar        1 UNL1     0.1007
     12 C         -6.033515   3.324868   2.075397 C.ar        1 UNL1     0.1389
     13 C         -4.768013   2.98273   1.562682 C.ar        1 UNL1     0.0229
     14 C         -8.424524   3.894062   1.802533 C.2        1 UNL1     0.1740
     15 C         -8.552577   3.621251   3.272474 C.3        1 UNL1     0.0520
     16 C         -7.279479   4.091463   3.962459 C.3        1 UNL1     0.1322
     17 O         -6.127194   3.389417   3.446281 O.3        1 UNL1     -0.4828
     18 C         -7.128075   5.613954   4.005159 C.ar        1 UNL1     -0.0067
     19 C         -5.906703   6.199703   3.613545 C.ar        1 UNL1     -0.0516
     20 C         -5.718794   7.585154   3.685502 C.ar        1 UNL1     -0.0198
     21 C         -6.739666   8.393169   4.153219 C.ar        1 UNL1     0.1169
     22 C         -7.965353   7.849169   4.514597 C.ar        1 UNL1     -0.0198
     23 C         -8.159854   6.465605   4.425296 C.ar        1 UNL1     -0.0516
     24 O         -6.507056   9.734014   4.245026 O.3        1 UNL1     -0.5068
     25 O         -9.398141   4.242972   1.140102 O.2        1 UNL1     -0.2917
     26 O         -7.843414   3.95469   -1.04353 O.3        1 UNL1     -0.5058
     27 O         -2.23557   0.093661   1.242331 O.3        1 UNL1     -0.3648
     28 O         -0.497399   -0.983224   -1.731095 O.3        1 UNL1     -0.3841
     29 O         -0.171347   2.412581   -0.629712 O.3        1 UNL1     -0.3863
     30 O         -2.143017   0.99327   -3.386192 O.3        1 UNL1     -0.3829
     31 H         -2.311942   -1.314278   -0.168295 H        1 UNL1     0.0937
     32 H         0.0   0.0   0.0 H        1 UNL1     0.0671
     33 H         0.093015   1.290413   -2.289408 H        1 UNL1     0.0649
     34 H         -1.908907   2.844642   -2.532055 H        1 UNL1     0.0683
     35 H         -4.052083   1.791597   -1.973357 H        1 UNL1     0.1085
     36 H         -5.491431   3.263197   -1.74874 H        1 UNL1     0.0691
     37 H         -3.959571   2.756634   2.254633 H        1 UNL1     0.0691
     38 H         -8.694499   2.542532   3.397978 H        1 UNL1     0.0385
     39 H         -9.443484   4.130336   3.655745 H        1 UNL1     0.0385
     40 H         -7.34519   3.776408   5.01267 H        1 UNL1     0.0789
     41 H         -5.086774   5.586239   3.251566 H        1 UNL1     0.0623
     42 H         -4.768274   8.023667   3.391853 H        1 UNL1     0.0654
     43 H         -8.776687   8.474283   4.86798 H        1 UNL1     0.0654
     44 H         -9.133625   6.075891   4.7059 H        1 UNL1     0.0623
     45 H         -5.770449   9.876002   4.861441 H        1 UNL1     0.2921
     46 H         -8.607735   3.374715   -0.89912 H        1 UNL1     0.2922
     47 H         -1.543915   -0.375009   1.73 H        1 UNL1     0.2126
     48 H         -0.460586   -1.823053   -1.23404 H        1 UNL1     0.2101
     49 H         0.76032   2.240055   -0.419892 H        1 UNL1     0.2100
     50 H         -1.425169   1.219343   -4.013327 H        1 UNL1     0.2102
@<TRIPOS>BOND
     1     1     2    1
     2     1     6    1
     3     2     3    1
     4     3     4    1
     5     3    29    1
     6     3    33    1
     7     4     5    1
     8     5     6    1
     9     5     7    1
    10     5    35    1
    11     7     8    1
    12     8     9   ar
    13     8    13   ar
    14     9    10   ar
    15     9    36    1
    16    10    11   ar
    17    10    26    1
    18    11    12   ar
    19    11    14    1
    20    12    13   ar
    21    12    17    1
    22    13    37    1
    23    14    15    1
    24    14    25    2
    25    15    16    1
    26    15    38    1
    27    15    39    1
    28    16    17    1
    29    16    18    1
    30    16    40    1
    31    18    19   ar
    32    18    23   ar
    33    19    20   ar
    34    19    41    1
    35    20    21   ar
    36    20    42    1
    37    21    22   ar
    38    21    24    1
    39    22    23   ar
    40    22    43    1
    41    23    44    1
    42    24    45    1
    43    26    46    1
    44    27    47    1
    45    28    48    1
    46    29    49    1
    47    30    50    1
    48     1    31    1
    49     1    27    1
    50     2    32    1
    51     2    28    1
    52     4    34    1
    53     4    30    1
