@<TRIPOS>MOLECULE
*****
 50 53 0 0 0
SMALL
GASTEIGER

@<TRIPOS>ATOM
     1 C         -0.806133   -2.025623   0.133441 C.3        1 UNL1     0.1889
     2 C         -0.526132   -0.713057   -0.646758 C.3        1 UNL1     0.1342
     3 C         -1.775404   -0.034195   -1.228937 C.3        1 UNL1     0.1174
     4 C         -2.834688   -1.037482   -1.692022 C.3        1 UNL1     0.1456
     5 C         -3.09142   -2.145751   -0.654625 C.3        1 UNL1     0.2326
     6 O         -1.873292   -2.824088   -0.356476 O.3        1 UNL1     -0.3076
     7 O         -3.783312   -1.682839   0.519393 O.3        1 UNL1     -0.4605
     8 C         -3.52399   -2.375385   1.688435 C.ar        1 UNL1     0.1310
     9 C         -3.926681   -1.982507   2.969367 C.ar        1 UNL1     0.0226
     10 C         -3.629286   -2.76317   4.092765 C.ar        1 UNL1     0.1343
     11 C         -2.941953   -3.968844   3.959486 C.ar        1 UNL1     0.1007
     12 C         -2.498885   -4.351307   2.690551 C.ar        1 UNL1     0.1389
     13 C         -2.795742   -3.564862   1.561476 C.ar        1 UNL1     0.0229
     14 C         -2.67445   -4.873797   5.101265 C.2        1 UNL1     0.1740
     15 C         -2.125568   -6.22406   4.744801 C.3        1 UNL1     0.0520
     16 C         -1.106714   -6.050182   3.626918 C.3        1 UNL1     0.1322
     17 O         -1.721877   -5.462626   2.459261 O.3        1 UNL1     -0.4828
     18 C         0.18772   -5.366498   4.073842 C.ar        1 UNL1     -0.0067
     19 C         0.43249   -4.030941   3.693596 C.ar        1 UNL1     -0.0516
     20 C         1.627162   -3.391385   4.04529 C.ar        1 UNL1     -0.0198
     21 C         2.585959   -4.077375   4.769136 C.ar        1 UNL1     0.1169
     22 C         2.359765   -5.382449   5.186818 C.ar        1 UNL1     -0.0198
     23 C         1.15738   -6.016168   4.85107 C.ar        1 UNL1     -0.0516
     24 O         3.752933   -3.434336   5.060808 O.3        1 UNL1     -0.5068
     25 O         -2.949605   -4.593558   6.264983 O.2        1 UNL1     -0.2917
     26 O         -4.049611   -2.323284   5.313999 O.3        1 UNL1     -0.5058
     27 O         -0.891663   -1.841411   1.537555 O.3        1 UNL1     -0.3648
     28 O         0.349861   -1.015383   -1.748548 O.3        1 UNL1     -0.3841
     29 O         -2.294328   0.938311   -0.319495 O.3        1 UNL1     -0.3863
     30 O         -2.400677   -1.648749   -2.926395 O.3        1 UNL1     -0.3829
     31 H         0.074032   -2.66369   -0.001691 H        1 UNL1     0.0937
     32 H         0.0   0.0   0.0 H        1 UNL1     0.0671
     33 H         -1.465333   0.533399   -2.117426 H        1 UNL1     0.0649
     34 H         -3.774873   -0.516953   -1.905337 H        1 UNL1     0.0683
     35 H         -3.733146   -2.860693   -1.184649 H        1 UNL1     0.1085
     36 H         -4.512269   -1.084419   3.132607 H        1 UNL1     0.0691
     37 H         -2.438465   -3.884076   0.584773 H        1 UNL1     0.0691
     38 H         -2.965327   -6.847793   4.420319 H        1 UNL1     0.0385
     39 H         -1.685989   -6.680153   5.638405 H        1 UNL1     0.0385
     40 H         -0.807131   -7.055978   3.302658 H        1 UNL1     0.0789
     41 H         -0.300382   -3.473793   3.117284 H        1 UNL1     0.0623
     42 H         1.809199   -2.36514   3.735941 H        1 UNL1     0.0654
     43 H         3.097476   -5.92392   5.766906 H        1 UNL1     0.0654
     44 H         1.009704   -7.032614   5.203027 H        1 UNL1     0.0623
     45 H         4.486484   -4.057783   4.934579 H        1 UNL1     0.2921
     46 H         -3.605692   -2.831402   6.011253 H        1 UNL1     0.2922
     47 H         -1.160821   -2.665145   1.967527 H        1 UNL1     0.2126
     48 H         0.972341   -0.266732   -1.824528 H        1 UNL1     0.2101
     49 H         -3.262089   0.874679   -0.285095 H        1 UNL1     0.2100
     50 H         -1.428934   -1.542205   -2.990243 H        1 UNL1     0.2102
@<TRIPOS>BOND
     1     1     2    1
     2     1     6    1
     3     2     3    1
     4     3     4    1
     5     3    29    1
     6     3    33    1
     7     4     5    1
     8     5     6    1
     9     5     7    1
    10     5    35    1
    11     7     8    1
    12     8     9   ar
    13     8    13   ar
    14     9    10   ar
    15     9    36    1
    16    10    11   ar
    17    10    26    1
    18    11    12   ar
    19    11    14    1
    20    12    13   ar
    21    12    17    1
    22    13    37    1
    23    14    15    1
    24    14    25    2
    25    15    16    1
    26    15    38    1
    27    15    39    1
    28    16    17    1
    29    16    18    1
    30    16    40    1
    31    18    19   ar
    32    18    23   ar
    33    19    20   ar
    34    19    41    1
    35    20    21   ar
    36    20    42    1
    37    21    22   ar
    38    21    24    1
    39    22    23   ar
    40    22    43    1
    41    23    44    1
    42    24    45    1
    43    26    46    1
    44    27    47    1
    45    28    48    1
    46    29    49    1
    47    30    50    1
    48     1    31    1
    49     1    27    1
    50     2    32    1
    51     2    28    1
    52     4    34    1
    53     4    30    1
