@<TRIPOS>MOLECULE
*****
 50 53 0 0 0
SMALL
GASTEIGER

@<TRIPOS>ATOM
     1 C         -0.319798   -1.360992   1.678164 C.3        1 UNL1     0.1889
     2 C         -0.46269   -0.978213   0.180498 C.3        1 UNL1     0.1342
     3 C         -1.908093   -0.952519   -0.339709 C.3        1 UNL1     0.1174
     4 C         -2.790732   -2.02295   0.307008 C.3        1 UNL1     0.1456
     5 C         -2.625811   -2.078749   1.83673 C.3        1 UNL1     0.2326
     6 O         -1.258357   -2.306185   2.170212 O.3        1 UNL1     -0.3076
     7 O         -3.192721   -0.943716   2.516168 O.3        1 UNL1     -0.4605
     8 C         -3.702257   -1.185631   3.779251 C.ar        1 UNL1     0.1310
     9 C         -4.524856   -2.261965   4.128733 C.ar        1 UNL1     0.0226
     10 C         -4.97711   -2.430345   5.442893 C.ar        1 UNL1     0.1343
     11 C         -4.597883   -1.538783   6.445463 C.ar        1 UNL1     0.1007
     12 C         -3.810316   -0.437226   6.100362 C.ar        1 UNL1     0.1389
     13 C         -3.357877   -0.266681   4.778377 C.ar        1 UNL1     0.0229
     14 C         -4.977741   -1.715563   7.866241 C.2        1 UNL1     0.1740
     15 C         -4.301743   -0.79405   8.838552 C.3        1 UNL1     0.0520
     16 C         -4.224658   0.592472   8.214396 C.3        1 UNL1     0.1322
     17 O         -3.467925   0.55969   6.984213 O.3        1 UNL1     -0.4828
     18 C         -5.579699   1.296083   8.107069 C.ar        1 UNL1     -0.0067
     19 C         -5.949199   1.905402   6.890346 C.ar        1 UNL1     -0.0516
     20 C         -7.160262   2.597774   6.772414 C.ar        1 UNL1     -0.0198
     21 C         -8.005236   2.694044   7.86355 C.ar        1 UNL1     0.1169
     22 C         -7.684489   2.076123   9.065271 C.ar        1 UNL1     -0.0198
     23 C         -6.482024   1.368019   9.178064 C.ar        1 UNL1     -0.0516
     24 O         -9.158487   3.408469   7.722096 O.3        1 UNL1     -0.5068
     25 O         -5.731531   -2.602008   8.259309 O.2        1 UNL1     -0.2917
     26 O         -5.777726   -3.500403   5.717797 O.3        1 UNL1     -0.5058
     27 O         -0.204862   -0.239746   2.539781 O.3        1 UNL1     -0.3648
     28 O         0.259178   -1.942774   -0.607686 O.3        1 UNL1     -0.3841
     29 O         -2.462189   0.360372   -0.232815 O.3        1 UNL1     -0.3863
     30 O         -2.450387   -3.313842   -0.243858 O.3        1 UNL1     -0.3829
     31 H         0.64083   -1.877881   1.778659 H        1 UNL1     0.0937
     32 H         0.0   0.0   0.0 H        1 UNL1     0.0671
     33 H         -1.88092   -1.170964   -1.4164 H        1 UNL1     0.0649
     34 H         -3.84269   -1.837648   0.063189 H        1 UNL1     0.0683
     35 H         -3.179648   -2.979441   2.129813 H        1 UNL1     0.1085
     36 H         -4.809011   -3.02021   3.407318 H        1 UNL1     0.0691
     37 H         -2.746757   0.599877   4.535268 H        1 UNL1     0.0691
     38 H         -3.301609   -1.195152   9.034449 H        1 UNL1     0.0385
     39 H         -4.860632   -0.793564   9.780582 H        1 UNL1     0.0385
     40 H         -3.624905   1.218281   8.889065 H        1 UNL1     0.0789
     41 H         -5.299116   1.851926   6.021909 H        1 UNL1     0.0623
     42 H         -7.428438   3.073492   5.832315 H        1 UNL1     0.0654
     43 H         -8.345896   2.132476   9.921586 H        1 UNL1     0.0654
     44 H         -6.268356   0.888714   10.128569 H        1 UNL1     0.0623
     45 H         -8.925957   4.330534   7.526029 H        1 UNL1     0.2921
     46 H         -5.376881   -4.031379   6.424055 H        1 UNL1     0.2922
     47 H         0.523827   0.328781   2.254037 H        1 UNL1     0.2126
     48 H         1.200782   -1.854601   -0.364089 H        1 UNL1     0.2101
     49 H         -2.033655   0.95242   -0.871277 H        1 UNL1     0.2100
     50 H         -2.697176   -3.311655   -1.191911 H        1 UNL1     0.2102
@<TRIPOS>BOND
     1     1     2    1
     2     1     6    1
     3     2     3    1
     4     3     4    1
     5     3    29    1
     6     3    33    1
     7     4     5    1
     8     5     6    1
     9     5     7    1
    10     5    35    1
    11     7     8    1
    12     8     9   ar
    13     8    13   ar
    14     9    10   ar
    15     9    36    1
    16    10    11   ar
    17    10    26    1
    18    11    12   ar
    19    11    14    1
    20    12    13   ar
    21    12    17    1
    22    13    37    1
    23    14    15    1
    24    14    25    2
    25    15    16    1
    26    15    38    1
    27    15    39    1
    28    16    17    1
    29    16    18    1
    30    16    40    1
    31    18    19   ar
    32    18    23   ar
    33    19    20   ar
    34    19    41    1
    35    20    21   ar
    36    20    42    1
    37    21    22   ar
    38    21    24    1
    39    22    23   ar
    40    22    43    1
    41    23    44    1
    42    24    45    1
    43    26    46    1
    44    27    47    1
    45    28    48    1
    46    29    49    1
    47    30    50    1
    48     1    31    1
    49     1    27    1
    50     2    32    1
    51     2    28    1
    52     4    34    1
    53     4    30    1
