@<TRIPOS>MOLECULE
*****
 50 53 0 0 0
SMALL
GASTEIGER

@<TRIPOS>ATOM
     1 C         -1.523968   0.235614   1.546872 C.3        1 UNL1     0.1889
     2 C         -0.59613   0.808115   0.441747 C.3        1 UNL1     0.1342
     3 C         0.346355   1.926725   0.911747 C.3        1 UNL1     0.1174
     4 C         -0.283437   2.823422   1.980584 C.3        1 UNL1     0.1456
     5 C         -0.979527   2.017083   3.092177 C.3        1 UNL1     0.2326
     6 O         -1.970399   1.162881   2.525274 O.3        1 UNL1     -0.3076
     7 O         -0.062167   1.323296   3.957296 O.3        1 UNL1     -0.4605
     8 C         1.27856   1.610683   3.77457 C.ar        1 UNL1     0.1310
     9 C         1.807659   2.380683   2.733198 C.ar        1 UNL1     0.0226
     10 C         3.182306   2.630195   2.643812 C.ar        1 UNL1     0.1343
     11 C         4.059346   2.135096   3.607928 C.ar        1 UNL1     0.1007
     12 C         3.547853   1.330628   4.629686 C.ar        1 UNL1     0.1389
     13 C         2.165941   1.077693   4.71786 C.ar        1 UNL1     0.0229
     14 C         5.509345   2.437846   3.608914 C.2        1 UNL1     0.1740
     15 C         6.260626   2.012352   4.836139 C.3        1 UNL1     0.0520
     16 C         5.744715   0.646427   5.267466 C.3        1 UNL1     0.1322
     17 O         4.333001   0.703281   5.568965 O.3        1 UNL1     -0.4828
     18 C         6.146677   -0.490027   4.324269 C.ar        1 UNL1     -0.0067
     19 C         7.509079   -0.68786   4.019417 C.ar        1 UNL1     -0.0516
     20 C         7.906928   -1.687598   3.123759 C.ar        1 UNL1     -0.0198
     21 C         6.953615   -2.489463   2.522068 C.ar        1 UNL1     0.1169
     22 C         5.606999   -2.340886   2.827665 C.ar        1 UNL1     -0.0198
     23 C         5.210406   -1.353356   3.737365 C.ar        1 UNL1     -0.0516
     24 O         7.375591   -3.427559   1.626348 O.3        1 UNL1     -0.5068
     25 O         6.069553   3.065698   2.714234 O.2        1 UNL1     -0.2917
     26 O         3.6344   3.38777   1.603007 O.3        1 UNL1     -0.5058
     27 O         -1.028973   -0.954209   2.140241 O.3        1 UNL1     -0.3648
     28 O         -1.418309   1.353093   -0.606931 O.3        1 UNL1     -0.3841
     29 O         1.608979   1.390854   1.31269 O.3        1 UNL1     -0.3863
     30 O         -1.255868   3.691004   1.358194 O.3        1 UNL1     -0.3829
     31 H         -2.448521   -0.075951   1.048667 H        1 UNL1     0.0937
     32 H         0.0   0.0   0.0 H        1 UNL1     0.0671
     33 H         0.563245   2.568234   0.046216 H        1 UNL1     0.0649
     34 H         0.482143   3.467908   2.426595 H        1 UNL1     0.0683
     35 H         -1.511203   2.777799   3.677422 H        1 UNL1     0.1085
     36 H         1.172233   2.84019   1.98406 H        1 UNL1     0.0691
     37 H         1.79305   0.447356   5.522298 H        1 UNL1     0.0691
     38 H         6.081806   2.764949   5.611476 H        1 UNL1     0.0385
     39 H         7.333058   1.998558   4.613701 H        1 UNL1     0.0385
     40 H         6.221293   0.408999   6.228206 H        1 UNL1     0.0789
     41 H         8.275944   -0.065619   4.471507 H        1 UNL1     0.0623
     42 H         8.959601   -1.822454   2.887738 H        1 UNL1     0.0654
     43 H         4.853421   -2.973295   2.373695 H        1 UNL1     0.0654
     44 H         4.151007   -1.272254   3.96084 H        1 UNL1     0.0623
     45 H         6.898847   -4.255078   1.801405 H        1 UNL1     0.2921
     46 H         2.967566   3.400218   0.898316 H        1 UNL1     0.2922
     47 H         -0.17685   -0.786416   2.566378 H        1 UNL1     0.2126
     48 H         -1.003045   1.092928   -1.451681 H        1 UNL1     0.2101
     49 H         1.943912   1.876505   2.083246 H        1 UNL1     0.2100
     50 H         -1.486471   4.394605   1.999662 H        1 UNL1     0.2102
@<TRIPOS>BOND
     1     1     2    1
     2     1     6    1
     3     2     3    1
     4     3     4    1
     5     3    29    1
     6     3    33    1
     7     4     5    1
     8     5     6    1
     9     5     7    1
    10     5    35    1
    11     7     8    1
    12     8     9   ar
    13     8    13   ar
    14     9    10   ar
    15     9    36    1
    16    10    11   ar
    17    10    26    1
    18    11    12   ar
    19    11    14    1
    20    12    13   ar
    21    12    17    1
    22    13    37    1
    23    14    15    1
    24    14    25    2
    25    15    16    1
    26    15    38    1
    27    15    39    1
    28    16    17    1
    29    16    18    1
    30    16    40    1
    31    18    19   ar
    32    18    23   ar
    33    19    20   ar
    34    19    41    1
    35    20    21   ar
    36    20    42    1
    37    21    22   ar
    38    21    24    1
    39    22    23   ar
    40    22    43    1
    41    23    44    1
    42    24    45    1
    43    26    46    1
    44    27    47    1
    45    28    48    1
    46    29    49    1
    47    30    50    1
    48     1    31    1
    49     1    27    1
    50     2    32    1
    51     2    28    1
    52     4    34    1
    53     4    30    1
