@<TRIPOS>MOLECULE
*****
 50 53 0 0 0
SMALL
GASTEIGER

@<TRIPOS>ATOM
     1 C         -0.563309   -2.088767   0.300896 C.3        1 UNL1     0.1889
     2 C         -0.839802   -0.565986   0.421847 C.3        1 UNL1     0.1342
     3 C         -1.106936   -0.074424   1.852745 C.3        1 UNL1     0.1174
     4 C         -1.860627   -1.101023   2.701959 C.3        1 UNL1     0.1456
     5 C         -1.272334   -2.518106   2.574873 C.3        1 UNL1     0.2326
     6 O         -1.269761   -2.922512   1.207643 O.3        1 UNL1     -0.3076
     7 O         0.010237   -2.665474   3.210967 O.3        1 UNL1     -0.4605
     8 C         0.909223   -3.503289   2.575817 C.ar        1 UNL1     0.1310
     9 C         0.580279   -4.466605   1.616067 C.ar        1 UNL1     0.0226
     10 C         1.567711   -5.257107   1.016078 C.ar        1 UNL1     0.1343
     11 C         2.912013   -5.086848   1.344262 C.ar        1 UNL1     0.1007
     12 C         3.248622   -4.156508   2.33115 C.ar        1 UNL1     0.1389
     13 C         2.255304   -3.363627   2.936204 C.ar        1 UNL1     0.0229
     14 C         4.004081   -5.836091   0.680804 C.2        1 UNL1     0.1740
     15 C         5.395357   -5.370056   0.994984 C.3        1 UNL1     0.0520
     16 C         5.466191   -5.029523   2.477204 C.3        1 UNL1     0.1322
     17 O         4.527063   -3.98288   2.808337 O.3        1 UNL1     -0.4828
     18 C         5.401621   -6.253216   3.394335 C.ar        1 UNL1     -0.0067
     19 C         5.999584   -7.461234   2.980396 C.ar        1 UNL1     -0.0516
     20 C         5.917947   -8.611904   3.773653 C.ar        1 UNL1     -0.0198
     21 C         5.236409   -8.569542   4.97679 C.ar        1 UNL1     0.1169
     22 C         4.665864   -7.386088   5.427071 C.ar        1 UNL1     -0.0198
     23 C         4.763188   -6.230551   4.642648 C.ar        1 UNL1     -0.0516
     24 O         5.145367   -9.719547   5.704526 O.3        1 UNL1     -0.5068
     25 O         3.809932   -6.73035   -0.138399 O.2        1 UNL1     -0.2917
     26 O         1.180554   -6.179351   0.088092 O.3        1 UNL1     -0.5058
     27 O         0.817711   -2.411131   0.260251 O.3        1 UNL1     -0.3648
     28 O         -2.003957   -0.249958   -0.364013 O.3        1 UNL1     -0.3841
     29 O         0.102163   0.373035   2.469181 O.3        1 UNL1     -0.3863
     30 O         -3.243925   -1.133982   2.288328 O.3        1 UNL1     -0.3829
     31 H         -0.941468   -2.398469   -0.679491 H        1 UNL1     0.0937
     32 H         0.0   0.0   0.0 H        1 UNL1     0.0671
     33 H         -1.747887   0.815868   1.787305 H        1 UNL1     0.0649
     34 H         -1.847959   -0.797238   3.754554 H        1 UNL1     0.0683
     35 H         -2.000029   -3.154171   3.094256 H        1 UNL1     0.1085
     36 H         -0.440061   -4.608693   1.277189 H        1 UNL1     0.0691
     37 H         2.543272   -2.647273   3.702627 H        1 UNL1     0.0691
     38 H         5.596756   -4.488453   0.377132 H        1 UNL1     0.0385
     39 H         6.108005   -6.153559   0.715638 H        1 UNL1     0.0385
     40 H         6.4523   -4.581374   2.659614 H        1 UNL1     0.0789
     41 H         6.532353   -7.522764   2.035927 H        1 UNL1     0.0623
     42 H         6.372985   -9.540475   3.437934 H        1 UNL1     0.0654
     43 H         4.142775   -7.337968   6.374685 H        1 UNL1     0.0654
     44 H         4.314842   -5.320829   5.030252 H        1 UNL1     0.0623
     45 H         6.033743   -9.955877   6.017022 H        1 UNL1     0.2921
     46 H         0.269928   -6.459848   0.271107 H        1 UNL1     0.2922
     47 H         1.311471   -1.712429   -0.191275 H        1 UNL1     0.2126
     48 H         -1.752909   -0.376645   -1.299245 H        1 UNL1     0.2101
     49 H         -0.075369   1.156395   3.013812 H        1 UNL1     0.2100
     50 H         -3.564168   -2.055259   2.380012 H        1 UNL1     0.2102
@<TRIPOS>BOND
     1     1     2    1
     2     1     6    1
     3     2     3    1
     4     3     4    1
     5     3    29    1
     6     3    33    1
     7     4     5    1
     8     5     6    1
     9     5     7    1
    10     5    35    1
    11     7     8    1
    12     8     9   ar
    13     8    13   ar
    14     9    10   ar
    15     9    36    1
    16    10    11   ar
    17    10    26    1
    18    11    12   ar
    19    11    14    1
    20    12    13   ar
    21    12    17    1
    22    13    37    1
    23    14    15    1
    24    14    25    2
    25    15    16    1
    26    15    38    1
    27    15    39    1
    28    16    17    1
    29    16    18    1
    30    16    40    1
    31    18    19   ar
    32    18    23   ar
    33    19    20   ar
    34    19    41    1
    35    20    21   ar
    36    20    42    1
    37    21    22   ar
    38    21    24    1
    39    22    23   ar
    40    22    43    1
    41    23    44    1
    42    24    45    1
    43    26    46    1
    44    27    47    1
    45    28    48    1
    46    29    49    1
    47    30    50    1
    48     1    31    1
    49     1    27    1
    50     2    32    1
    51     2    28    1
    52     4    34    1
    53     4    30    1
