@<TRIPOS>MOLECULE
*****
 50 53 0 0 0
SMALL
GASTEIGER

@<TRIPOS>ATOM
     1 C         -0.335338   -1.329836   1.699968 C.3        1 UNL1     0.1889
     2 C         -0.464231   -0.974851   0.194208 C.3        1 UNL1     0.1342
     3 C         -1.904695   -0.959222   -0.339912 C.3        1 UNL1     0.1174
     4 C         -2.793217   -2.017787   0.318183 C.3        1 UNL1     0.1456
     5 C         -2.642641   -2.045247   1.850154 C.3        1 UNL1     0.2326
     6 O         -1.278344   -2.26606   2.200587 O.3        1 UNL1     -0.3076
     7 O         -3.21605   -0.898023   2.503147 O.3        1 UNL1     -0.4605
     8 C         -3.727189   -1.114222   3.77024 C.ar        1 UNL1     0.1310
     9 C         -4.542886   -2.188127   4.142619 C.ar        1 UNL1     0.0226
     10 C         -4.997414   -2.329206   5.459206 C.ar        1 UNL1     0.1343
     11 C         -4.627346   -1.41182   6.4417 C.ar        1 UNL1     0.1007
     12 C         -3.846875   -0.312854   6.073027 C.ar        1 UNL1     0.1389
     13 C         -3.392156   -0.169791   4.748567 C.ar        1 UNL1     0.0229
     14 C         -5.009706   -1.558288   7.865253 C.2        1 UNL1     0.1740
     15 C         -4.343011   -0.609492   8.817542 C.3        1 UNL1     0.0520
     16 C         -4.274323   0.762668   8.161481 C.3        1 UNL1     0.1322
     17 O         -3.514089   0.706825   6.934291 O.3        1 UNL1     -0.4828
     18 C         -5.634143   1.453659   8.034419 C.ar        1 UNL1     -0.0067
     19 C         -6.011446   2.017913   6.798509 C.ar        1 UNL1     -0.0516
     20 C         -7.227255   2.698201   6.66074 C.ar        1 UNL1     -0.0198
     21 C         -8.069278   2.827154   7.750784 C.ar        1 UNL1     0.1169
     22 C         -7.74072   2.253477   8.972169 C.ar        1 UNL1     -0.0198
     23 C         -6.533426   1.557235   9.105379 C.ar        1 UNL1     -0.0516
     24 O         -9.227492   3.529022   7.588539 O.3        1 UNL1     -0.5068
     25 O         -5.75809   -2.440844   8.276958 O.2        1 UNL1     -0.2917
     26 O         -5.790976   -3.398412   5.756936 O.3        1 UNL1     -0.5058
     27 O         -0.228638   -0.192818   2.541747 O.3        1 UNL1     -0.3648
     28 O         0.265125   -1.953596   -0.569208 O.3        1 UNL1     -0.3841
     29 O         -2.459946   0.35525   -0.262507 O.3        1 UNL1     -0.3863
     30 O         -2.447548   -3.318536   -0.205509 O.3        1 UNL1     -0.3829
     31 H         0.624374   -1.844483   1.819001 H        1 UNL1     0.0937
     32 H         0.0   0.0   0.0 H        1 UNL1     0.0671
     33 H         -1.867398   -1.197526   -1.412078 H        1 UNL1     0.0649
     34 H         -3.842868   -1.837347   0.06113 H        1 UNL1     0.0683
     35 H         -3.199082   -2.940538   2.154634 H        1 UNL1     0.1085
     36 H         -4.819604   -2.965003   3.438337 H        1 UNL1     0.0691
     37 H         -2.786693   0.695328   4.486886 H        1 UNL1     0.0691
     38 H         -3.340519   -0.998602   9.025222 H        1 UNL1     0.0385
     39 H         -4.904403   -0.591189   9.757905 H        1 UNL1     0.0385
     40 H         -3.68093   1.408368   8.822901 H        1 UNL1     0.0789
     41 H         -5.363858   1.93827   5.930213 H        1 UNL1     0.0623
     42 H         -7.501492   3.139205   5.705585 H        1 UNL1     0.0654
     43 H         -8.399689   2.335503   9.828289 H        1 UNL1     0.0654
     44 H         -6.313639   1.112671   10.071247 H        1 UNL1     0.0623
     45 H         -9.002029   4.437233   7.329628 H        1 UNL1     0.2921
     46 H         -5.387484   -3.91065   6.475419 H        1 UNL1     0.2922
     47 H         0.515461   0.359993   2.265022 H        1 UNL1     0.2126
     48 H         1.197974   -1.889699   -0.28735 H        1 UNL1     0.2101
     49 H         -2.019676   0.937648   -0.901859 H        1 UNL1     0.2100
     50 H         -2.680213   -3.332032   -1.157032 H        1 UNL1     0.2102
@<TRIPOS>BOND
     1     1     2    1
     2     1     6    1
     3     2     3    1
     4     3     4    1
     5     3    29    1
     6     3    33    1
     7     4     5    1
     8     5     6    1
     9     5     7    1
    10     5    35    1
    11     7     8    1
    12     8     9   ar
    13     8    13   ar
    14     9    10   ar
    15     9    36    1
    16    10    11   ar
    17    10    26    1
    18    11    12   ar
    19    11    14    1
    20    12    13   ar
    21    12    17    1
    22    13    37    1
    23    14    15    1
    24    14    25    2
    25    15    16    1
    26    15    38    1
    27    15    39    1
    28    16    17    1
    29    16    18    1
    30    16    40    1
    31    18    19   ar
    32    18    23   ar
    33    19    20   ar
    34    19    41    1
    35    20    21   ar
    36    20    42    1
    37    21    22   ar
    38    21    24    1
    39    22    23   ar
    40    22    43    1
    41    23    44    1
    42    24    45    1
    43    26    46    1
    44    27    47    1
    45    28    48    1
    46    29    49    1
    47    30    50    1
    48     1    31    1
    49     1    27    1
    50     2    32    1
    51     2    28    1
    52     4    34    1
    53     4    30    1
