@<TRIPOS>MOLECULE
*****
 50 53 0 0 0
SMALL
GASTEIGER

@<TRIPOS>ATOM
     1 C         -0.322542   -1.323796   1.707143 C.3        1 UNL1     0.1889
     2 C         -0.457423   -0.976891   0.200025 C.3        1 UNL1     0.1342
     3 C         -1.899263   -0.973152   -0.330588 C.3        1 UNL1     0.1174
     4 C         -2.779286   -2.034271   0.334771 C.3        1 UNL1     0.1456
     5 C         -2.624783   -2.053396   1.866478 C.3        1 UNL1     0.2326
     6 O         -1.258228   -2.263688   2.214578 O.3        1 UNL1     -0.3076
     7 O         -3.204016   -0.906783   2.515391 O.3        1 UNL1     -0.4605
     8 C         -3.710636   -1.120196   3.784769 C.ar        1 UNL1     0.1310
     9 C         -4.521289   -2.195705   4.163482 C.ar        1 UNL1     0.0226
     10 C         -4.97143   -2.333609   5.481912 C.ar        1 UNL1     0.1343
     11 C         -4.601849   -1.411273   6.459944 C.ar        1 UNL1     0.1007
     12 C         -3.826503   -0.310818   6.084948 C.ar        1 UNL1     0.1389
     13 C         -3.376203   -0.170958   4.758638 C.ar        1 UNL1     0.0229
     14 C         -4.979488   -1.553909   7.885145 C.2        1 UNL1     0.1740
     15 C         -4.313489   -0.599188   8.831983 C.3        1 UNL1     0.0520
     16 C         -4.251764   0.770796   8.170701 C.3        1 UNL1     0.1322
     17 O         -3.494936   0.713228   6.941487 O.3        1 UNL1     -0.4828
     18 C         -5.614479   1.456334   8.045119 C.ar        1 UNL1     -0.0067
     19 C         -5.997478   2.014659   6.808269 C.ar        1 UNL1     -0.0516
     20 C         -7.216175   2.689982   6.671596 C.ar        1 UNL1     -0.0198
     21 C         -8.055463   2.819855   7.763638 C.ar        1 UNL1     0.1169
     22 C         -7.721216   2.251874   8.986142 C.ar        1 UNL1     -0.0198
     23 C         -6.510989   1.56055   9.11834 C.ar        1 UNL1     -0.0516
     24 O         -9.216717   3.516877   7.60224 O.3        1 UNL1     -0.5068
     25 O         -5.723416   -2.43768   8.302285 O.2        1 UNL1     -0.2917
     26 O         -5.760183   -3.404612   5.785894 O.3        1 UNL1     -0.5058
     27 O         -0.221155   -0.18208   2.543201 O.3        1 UNL1     -0.3648
     28 O         0.276392   -1.954551   -0.560503 O.3        1 UNL1     -0.3841
     29 O         -2.462833   0.338056   -0.258101 O.3        1 UNL1     -0.3863
     30 O         -2.426474   -3.335257   -0.183542 O.3        1 UNL1     -0.3829
     31 H         0.640776   -1.831642   1.826258 H        1 UNL1     0.0937
     32 H         0.0   0.0   0.0 H        1 UNL1     0.0671
     33 H         -1.863048   -1.216358   -1.40169 H        1 UNL1     0.0649
     34 H         -3.830712   -1.861866   0.079462 H        1 UNL1     0.0683
     35 H         -3.174658   -2.950796   2.176621 H        1 UNL1     0.1085
     36 H         -4.797219   -2.97617   3.462869 H        1 UNL1     0.0691
     37 H         -2.77469   0.695404   4.492006 H        1 UNL1     0.0691
     38 H         -3.30897   -0.983859   9.038129 H        1 UNL1     0.0385
     39 H         -4.872182   -0.579485   9.773923 H        1 UNL1     0.0385
     40 H         -3.658807   1.421089   8.827999 H        1 UNL1     0.0789
     41 H         -5.352153   1.934198   5.938365 H        1 UNL1     0.0623
     42 H         -7.494832   3.126467   5.715644 H        1 UNL1     0.0654
     43 H         -8.377966   2.334632   9.843895 H        1 UNL1     0.0654
     44 H         -6.286736   1.120344   10.085178 H        1 UNL1     0.0623
     45 H         -8.99535   4.424951   7.33934 H        1 UNL1     0.2921
     46 H         -5.352706   -3.912727   6.505056 H        1 UNL1     0.2922
     47 H         0.518664   0.374199   2.261986 H        1 UNL1     0.2126
     48 H         1.209494   -1.883265   -0.28127 H        1 UNL1     0.2101
     49 H         -2.027918   0.920212   -0.901324 H        1 UNL1     0.2100
     50 H         -2.661378   -3.35483   -1.13441 H        1 UNL1     0.2102
@<TRIPOS>BOND
     1     1     2    1
     2     1     6    1
     3     2     3    1
     4     3     4    1
     5     3    29    1
     6     3    33    1
     7     4     5    1
     8     5     6    1
     9     5     7    1
    10     5    35    1
    11     7     8    1
    12     8     9   ar
    13     8    13   ar
    14     9    10   ar
    15     9    36    1
    16    10    11   ar
    17    10    26    1
    18    11    12   ar
    19    11    14    1
    20    12    13   ar
    21    12    17    1
    22    13    37    1
    23    14    15    1
    24    14    25    2
    25    15    16    1
    26    15    38    1
    27    15    39    1
    28    16    17    1
    29    16    18    1
    30    16    40    1
    31    18    19   ar
    32    18    23   ar
    33    19    20   ar
    34    19    41    1
    35    20    21   ar
    36    20    42    1
    37    21    22   ar
    38    21    24    1
    39    22    23   ar
    40    22    43    1
    41    23    44    1
    42    24    45    1
    43    26    46    1
    44    27    47    1
    45    28    48    1
    46    29    49    1
    47    30    50    1
    48     1    31    1
    49     1    27    1
    50     2    32    1
    51     2    28    1
    52     4    34    1
    53     4    30    1
