@<TRIPOS>MOLECULE
*****
 50 53 0 0 0
SMALL
GASTEIGER

@<TRIPOS>ATOM
     1 C         -0.331015   -1.328193   1.702098 C.3        1 UNL1     0.1889
     2 C         -0.460995   -0.976076   0.195758 C.3        1 UNL1     0.1342
     3 C         -1.901471   -0.966107   -0.338467 C.3        1 UNL1     0.1174
     4 C         -2.786504   -2.026557   0.321288 C.3        1 UNL1     0.1456
     5 C         -2.635933   -2.051038   1.853311 C.3        1 UNL1     0.2326
     6 O         -1.27093   -2.266741   2.204177 O.3        1 UNL1     -0.3076
     7 O         -3.213197   -0.904674   2.504415 O.3        1 UNL1     -0.4605
     8 C         -3.723268   -1.120418   3.772015 C.ar        1 UNL1     0.1310
     9 C         -4.537951   -2.194649   4.145671 C.ar        1 UNL1     0.0226
     10 C         -4.991427   -2.335201   5.462678 C.ar        1 UNL1     0.1343
     11 C         -4.621282   -1.416933   6.444318 C.ar        1 UNL1     0.1007
     12 C         -3.841839   -0.317662   6.074377 C.ar        1 UNL1     0.1389
     13 C         -3.38818   -0.175131   4.749496 C.ar        1 UNL1     0.0229
     14 C         -5.002507   -1.562755   7.868241 C.2        1 UNL1     0.1740
     15 C         -4.33578   -0.61289   8.81944 C.3        1 UNL1     0.0520
     16 C         -4.268517   0.758897   8.162454 C.3        1 UNL1     0.1322
     17 O         -3.509135   0.702797   6.934748 O.3        1 UNL1     -0.4828
     18 C         -5.628907   1.448867   8.035937 C.ar        1 UNL1     -0.0067
     19 C         -6.00828   2.010433   6.799437 C.ar        1 UNL1     -0.0516
     20 C         -7.224668   2.689758   6.662031 C.ar        1 UNL1     -0.0198
     21 C         -8.065219   2.820418   7.753007 C.ar        1 UNL1     0.1169
     22 C         -7.734606   2.249373   8.975071 C.ar        1 UNL1     -0.0198
     23 C         -6.52673   1.55408   9.107962 C.ar        1 UNL1     -0.0516
     24 O         -9.224059   3.521307   7.591001 O.3        1 UNL1     -0.5068
     25 O         -5.749982   -2.445565   8.281052 O.2        1 UNL1     -0.2917
     26 O         -5.784032   -3.404765   5.761666 O.3        1 UNL1     -0.5058
     27 O         -0.228153   -0.189467   2.542043 O.3        1 UNL1     -0.3648
     28 O         0.271662   -1.953621   -0.566032 O.3        1 UNL1     -0.3841
     29 O         -2.461098   0.346634   -0.263221 O.3        1 UNL1     -0.3863
     30 O         -2.436474   -3.326994   -0.200278 O.3        1 UNL1     -0.3829
     31 H         0.630398   -1.839449   1.822018 H        1 UNL1     0.0937
     32 H         0.0   0.0   0.0 H        1 UNL1     0.0671
     33 H         -1.863313   -1.206018   -1.410245 H        1 UNL1     0.0649
     34 H         -3.836734   -1.850029   0.063885 H        1 UNL1     0.0683
     35 H         -3.189409   -2.947682   2.159208 H        1 UNL1     0.1085
     36 H         -4.814641   -2.972165   3.442087 H        1 UNL1     0.0691
     37 H         -2.783506   0.69024   4.486824 H        1 UNL1     0.0691
     38 H         -3.332868   -1.001173   9.026641 H        1 UNL1     0.0385
     39 H         -4.896503   -0.594375   9.760198 H        1 UNL1     0.0385
     40 H         -3.675092   1.40543   8.823031 H        1 UNL1     0.0789
     41 H         -5.361878   1.929417   5.930385 H        1 UNL1     0.0623
     42 H         -7.500508   3.128694   5.706385 H        1 UNL1     0.0654
     43 H         -8.392408   2.332741   9.831958 H        1 UNL1     0.0654
     44 H         -6.305323   1.111573   10.074405 H        1 UNL1     0.0623
     45 H         -8.999508   4.428839   7.328933 H        1 UNL1     0.2921
     46 H         -5.379059   -3.916944   6.479358 H        1 UNL1     0.2922
     47 H         0.514225   0.365282   2.264572 H        1 UNL1     0.2126
     48 H         1.204156   -1.886652   -0.283713 H        1 UNL1     0.2101
     49 H         -2.022672   0.929481   -0.903428 H        1 UNL1     0.2100
     50 H         -2.669034   -3.342803   -1.151792 H        1 UNL1     0.2102
@<TRIPOS>BOND
     1     1     2    1
     2     1     6    1
     3     2     3    1
     4     3     4    1
     5     3    29    1
     6     3    33    1
     7     4     5    1
     8     5     6    1
     9     5     7    1
    10     5    35    1
    11     7     8    1
    12     8     9   ar
    13     8    13   ar
    14     9    10   ar
    15     9    36    1
    16    10    11   ar
    17    10    26    1
    18    11    12   ar
    19    11    14    1
    20    12    13   ar
    21    12    17    1
    22    13    37    1
    23    14    15    1
    24    14    25    2
    25    15    16    1
    26    15    38    1
    27    15    39    1
    28    16    17    1
    29    16    18    1
    30    16    40    1
    31    18    19   ar
    32    18    23   ar
    33    19    20   ar
    34    19    41    1
    35    20    21   ar
    36    20    42    1
    37    21    22   ar
    38    21    24    1
    39    22    23   ar
    40    22    43    1
    41    23    44    1
    42    24    45    1
    43    26    46    1
    44    27    47    1
    45    28    48    1
    46    29    49    1
    47    30    50    1
    48     1    31    1
    49     1    27    1
    50     2    32    1
    51     2    28    1
    52     4    34    1
    53     4    30    1
