@<TRIPOS>MOLECULE
*****
 50 53 0 0 0
SMALL
GASTEIGER

@<TRIPOS>ATOM
     1 C         -0.315832   -1.309637   1.719274 C.3        1 UNL1     0.1889
     2 C         -0.470168   -0.968102   0.212797 C.3        1 UNL1     0.1342
     3 C         -1.920435   -0.942958   -0.293718 C.3        1 UNL1     0.1174
     4 C         -2.806688   -1.985884   0.391833 C.3        1 UNL1     0.1456
     5 C         -2.626879   -1.999893   1.920831 C.3        1 UNL1     0.2326
     6 O         -1.258364   -2.231218   2.247211 O.3        1 UNL1     -0.3076
     7 O         -3.176036   -0.840526   2.573224 O.3        1 UNL1     -0.4605
     8 C         -3.66436   -1.038972   3.852163 C.ar        1 UNL1     0.1310
     9 C         -4.485995   -2.098967   4.250442 C.ar        1 UNL1     0.0226
     10 C         -4.915778   -2.222596   5.577056 C.ar        1 UNL1     0.1343
     11 C         -4.514457   -1.301447   6.54363 C.ar        1 UNL1     0.1007
     12 C         -3.727644   -0.215907   6.149532 C.ar        1 UNL1     0.1389
     13 C         -3.297804   -0.090366   4.815025 C.ar        1 UNL1     0.0229
     14 C         -4.870013   -1.430452   7.975793 C.2        1 UNL1     0.1740
     15 C         -4.172356   -0.481982   8.905969 C.3        1 UNL1     0.0520
     16 C         -4.099421   0.883356   8.236276 C.3        1 UNL1     0.1322
     17 O         -3.364727   0.806937   6.994723 O.3        1 UNL1     -0.4828
     18 C         -5.452631   1.590658   8.130112 C.ar        1 UNL1     -0.0067
     19 C         -5.848269   2.147202   6.896441 C.ar        1 UNL1     -0.0516
     20 C         -7.05787   2.841818   6.776712 C.ar        1 UNL1     -0.0198
     21 C         -7.875353   2.992773   7.882497 C.ar        1 UNL1     0.1169
     22 C         -7.528869   2.427294   9.102752 C.ar        1 UNL1     -0.0198
     23 C         -6.328079   1.71679   9.218265 C.ar        1 UNL1     -0.0516
     24 O         -9.027609   3.707969   7.736886 O.3        1 UNL1     -0.5068
     25 O         -5.621136   -2.299642   8.410314 O.2        1 UNL1     -0.2917
     26 O         -5.716723   -3.278834   5.900219 O.3        1 UNL1     -0.5058
     27 O         -0.181503   -0.165589   2.547463 O.3        1 UNL1     -0.3648
     28 O         0.234462   -1.961683   -0.554665 O.3        1 UNL1     -0.3841
     29 O         -2.460858   0.377823   -0.218797 O.3        1 UNL1     -0.3863
     30 O         -2.484265   -3.295165   -0.125387 O.3        1 UNL1     -0.3829
     31 H         0.64078   -1.83289   1.825004 H        1 UNL1     0.0937
     32 H         0.0   0.0   0.0 H        1 UNL1     0.0671
     33 H         -1.906217   -1.19211   -1.363971 H        1 UNL1     0.0649
     34 H         -3.859235   -1.797235   0.153177 H        1 UNL1     0.0683
     35 H         -3.186309   -2.88642   2.24485 H        1 UNL1     0.1085
     36 H         -4.786628   -2.878379   3.55888 H        1 UNL1     0.0691
     37 H         -2.686774   0.764549   4.533501 H        1 UNL1     0.0691
     38 H         -3.170922   -0.882128   9.097127 H        1 UNL1     0.0385
     39 H         -4.714495   -0.448181   9.857137 H        1 UNL1     0.0385
     40 H         -3.484728   1.527154   8.879858 H        1 UNL1     0.0789
     41 H         -5.219926   2.050331   6.015843 H        1 UNL1     0.0623
     42 H         -7.346218   3.276637   5.822878 H        1 UNL1     0.0654
     43 H         -8.168812   2.526572   9.971387 H        1 UNL1     0.0654
     44 H         -6.093987   1.279228   10.183969 H        1 UNL1     0.0623
     45 H         -8.796002   4.610299   7.463253 H        1 UNL1     0.2921
     46 H         -5.30494   -3.790482   6.614406 H        1 UNL1     0.2922
     47 H         0.562743   0.376754   2.251116 H        1 UNL1     0.2126
     48 H         1.173051   -1.905065   -0.29089 H        1 UNL1     0.2101
     49 H         -2.027113   0.949422   -0.872198 H        1 UNL1     0.2100
     50 H         -2.735362   -3.315587   -1.07209 H        1 UNL1     0.2102
@<TRIPOS>BOND
     1     1     2    1
     2     1     6    1
     3     2     3    1
     4     3     4    1
     5     3    29    1
     6     3    33    1
     7     4     5    1
     8     5     6    1
     9     5     7    1
    10     5    35    1
    11     7     8    1
    12     8     9   ar
    13     8    13   ar
    14     9    10   ar
    15     9    36    1
    16    10    11   ar
    17    10    26    1
    18    11    12   ar
    19    11    14    1
    20    12    13   ar
    21    12    17    1
    22    13    37    1
    23    14    15    1
    24    14    25    2
    25    15    16    1
    26    15    38    1
    27    15    39    1
    28    16    17    1
    29    16    18    1
    30    16    40    1
    31    18    19   ar
    32    18    23   ar
    33    19    20   ar
    34    19    41    1
    35    20    21   ar
    36    20    42    1
    37    21    22   ar
    38    21    24    1
    39    22    23   ar
    40    22    43    1
    41    23    44    1
    42    24    45    1
    43    26    46    1
    44    27    47    1
    45    28    48    1
    46    29    49    1
    47    30    50    1
    48     1    31    1
    49     1    27    1
    50     2    32    1
    51     2    28    1
    52     4    34    1
    53     4    30    1
