@<TRIPOS>MOLECULE
*****
 50 53 0 0 0
SMALL
GASTEIGER

@<TRIPOS>ATOM
     1 C         1.064571   -0.383803   -1.868204 C.3        1 UNL1     0.1889
     2 C         1.007149   -0.295293   -0.319395 C.3        1 UNL1     0.1342
     3 C         2.03236   0.662585   0.306607 C.3        1 UNL1     0.1174
     4 C         3.360315   0.690451   -0.454233 C.3        1 UNL1     0.1456
     5 C         3.165855   0.812386   -1.976626 C.3        1 UNL1     0.2326
     6 O         2.353797   -0.259551   -2.450315 O.3        1 UNL1     -0.3076
     7 O         2.693311   2.106698   -2.392293 O.3        1 UNL1     -0.4605
     8 C         3.525788   2.811487   -3.243047 C.ar        1 UNL1     0.1310
     9 C         4.610239   2.274012   -3.94475 C.ar        1 UNL1     0.0226
     10 C         5.385342   3.068236   -4.79817 C.ar        1 UNL1     0.1343
     11 C         5.079886   4.415115   -4.989102 C.ar        1 UNL1     0.1007
     12 C         4.024577   4.972834   -4.262427 C.ar        1 UNL1     0.1389
     13 C         3.247003   4.174652   -3.40236 C.ar        1 UNL1     0.0229
     14 C         5.813192   5.279904   -5.942285 C.2        1 UNL1     0.1740
     15 C         5.212582   6.633303   -6.185444 C.3        1 UNL1     0.0520
     16 C         4.707619   7.181865   -4.858022 C.3        1 UNL1     0.1322
     17 O         3.704423   6.310343   -4.29135 O.3        1 UNL1     -0.4828
     18 C         5.82503   7.576916   -3.889491 C.ar        1 UNL1     -0.0067
     19 C         5.948982   8.922574   -3.486934 C.ar        1 UNL1     -0.0516
     20 C         6.987991   9.326144   -2.639849 C.ar        1 UNL1     -0.0198
     21 C         7.911666   8.397117   -2.19537 C.ar        1 UNL1     0.1169
     22 C         7.796599   7.058601   -2.547471 C.ar        1 UNL1     -0.0198
     23 C         6.746961   6.651439   -3.379658 C.ar        1 UNL1     -0.0516
     24 O         8.93176   8.833964   -1.402292 O.3        1 UNL1     -0.5068
     25 O         6.803715   4.909562   -6.566942 O.2        1 UNL1     -0.2917
     26 O         6.429976   2.483276   -5.452499 O.3        1 UNL1     -0.5058
     27 O         0.114552   0.446049   -2.517509 O.3        1 UNL1     -0.3648
     28 O         1.258676   -1.605394   0.22197 O.3        1 UNL1     -0.3841
     29 O         1.468506   1.963693   0.483578 O.3        1 UNL1     -0.3863
     30 O         4.09154   -0.523352   -0.175519 O.3        1 UNL1     -0.3829
     31 H         0.760256   -1.401824   -2.13486 H        1 UNL1     0.0937
     32 H         0.0   0.0   0.0 H        1 UNL1     0.0671
     33 H         2.254344   0.300471   1.320173 H        1 UNL1     0.0649
     34 H         3.976617   1.524351   -0.100422 H        1 UNL1     0.0683
     35 H         4.171913   0.655044   -2.385244 H        1 UNL1     0.1085
     36 H         4.864649   1.221632   -3.882366 H        1 UNL1     0.0691
     37 H         2.431551   4.633151   -2.847103 H        1 UNL1     0.0691
     38 H         4.391244   6.507788   -6.899011 H        1 UNL1     0.0385
     39 H         5.966281   7.283635   -6.642374 H        1 UNL1     0.0385
     40 H         4.169533   8.114151   -5.076715 H        1 UNL1     0.0789
     41 H         5.242088   9.672663   -3.829453 H        1 UNL1     0.0623
     42 H         7.079795   10.368883   -2.346115 H        1 UNL1     0.0654
     43 H         8.505682   6.320085   -2.192921 H        1 UNL1     0.0654
     44 H         6.681432   5.59605   -3.626043 H        1 UNL1     0.0623
     45 H         9.12213   9.758659   -1.62904 H        1 UNL1     0.2921
     46 H         7.209259   2.473846   -4.874537 H        1 UNL1     0.2922
     47 H         -0.640992   0.608752   -1.935667 H        1 UNL1     0.2126
     48 H         2.206497   -1.790701   0.076953 H        1 UNL1     0.2101
     49 H         1.338728   2.387347   -0.379827 H        1 UNL1     0.2100
     50 H         4.419879   -0.879783   -1.026908 H        1 UNL1     0.2102
@<TRIPOS>BOND
     1     1     2    1
     2     1     6    1
     3     2     3    1
     4     3     4    1
     5     3    29    1
     6     3    33    1
     7     4     5    1
     8     5     6    1
     9     5     7    1
    10     5    35    1
    11     7     8    1
    12     8     9   ar
    13     8    13   ar
    14     9    10   ar
    15     9    36    1
    16    10    11   ar
    17    10    26    1
    18    11    12   ar
    19    11    14    1
    20    12    13   ar
    21    12    17    1
    22    13    37    1
    23    14    15    1
    24    14    25    2
    25    15    16    1
    26    15    38    1
    27    15    39    1
    28    16    17    1
    29    16    18    1
    30    16    40    1
    31    18    19   ar
    32    18    23   ar
    33    19    20   ar
    34    19    41    1
    35    20    21   ar
    36    20    42    1
    37    21    22   ar
    38    21    24    1
    39    22    23   ar
    40    22    43    1
    41    23    44    1
    42    24    45    1
    43    26    46    1
    44    27    47    1
    45    28    48    1
    46    29    49    1
    47    30    50    1
    48     1    31    1
    49     1    27    1
    50     2    32    1
    51     2    28    1
    52     4    34    1
    53     4    30    1
