@<TRIPOS>MOLECULE
*****
 50 53 0 0 0
SMALL
GASTEIGER

@<TRIPOS>ATOM
     1 C         -0.349538   -1.336049   1.692218 C.3        1 UNL1     0.1889
     2 C         -0.4718   -0.972438   0.187964 C.3        1 UNL1     0.1342
     3 C         -1.910669   -0.943627   -0.349894 C.3        1 UNL1     0.1174
     4 C         -2.808603   -1.99907   0.300391 C.3        1 UNL1     0.1456
     5 C         -2.662358   -2.035461   1.832596 C.3        1 UNL1     0.2326
     6 O         -1.300644   -2.267956   2.185514 O.3        1 UNL1     -0.3076
     7 O         -3.229201   -0.887463   2.489947 O.3        1 UNL1     -0.4605
     8 C         -3.744879   -1.106328   3.754741 C.ar        1 UNL1     0.1310
     9 C         -4.571854   -2.174369   4.119022 C.ar        1 UNL1     0.0226
     10 C         -5.030277   -2.318981   5.433875 C.ar        1 UNL1     0.1343
     11 C         -4.653053   -1.411314   6.422653 C.ar        1 UNL1     0.1007
     12 C         -3.861061   -0.317887   6.062165 C.ar        1 UNL1     0.1389
     13 C         -3.402413   -0.171245   4.739452 C.ar        1 UNL1     0.0229
     14 C         -5.039569   -1.56268   7.84457 C.2        1 UNL1     0.1740
     15 C         -4.365365   -0.626353   8.803886 C.3        1 UNL1     0.0520
     16 C         -4.281871   0.74904   8.156368 C.3        1 UNL1     0.1322
     17 O         -3.519874   0.693175   6.930272 O.3        1 UNL1     -0.4828
     18 C         -5.634555   1.454205   8.031013 C.ar        1 UNL1     -0.0067
     19 C         -6.004696   2.02807   6.797365 C.ar        1 UNL1     -0.0516
     20 C         -7.21347   2.721141   6.661421 C.ar        1 UNL1     -0.0198
     21 C         -8.055482   2.853339   7.751085 C.ar        1 UNL1     0.1169
     22 C         -7.734159   2.270609   8.970107 C.ar        1 UNL1     -0.0198
     23 C         -6.534054   1.561692   9.101407 C.ar        1 UNL1     -0.0516
     24 O         -9.206418   3.567528   7.590835 O.3        1 UNL1     -0.5068
     25 O         -5.797421   -2.44029   8.249473 O.2        1 UNL1     -0.2917
     26 O         -5.834929   -3.382086   5.723578 O.3        1 UNL1     -0.5058
     27 O         -0.236876   -0.204158   2.540107 O.3        1 UNL1     -0.3648
     28 O         0.252504   -1.95253   -0.578528 O.3        1 UNL1     -0.3841
     29 O         -2.456592   0.374427   -0.267215 O.3        1 UNL1     -0.3863
     30 O         -2.470952   -3.299597   -0.229054 O.3        1 UNL1     -0.3829
     31 H         0.606098   -1.858248   1.811156 H        1 UNL1     0.0937
     32 H         0.0   0.0   0.0 H        1 UNL1     0.0671
     33 H         -1.872209   -1.176705   -1.423167 H        1 UNL1     0.0649
     34 H         -3.856223   -1.809707   0.041481 H        1 UNL1     0.0683
     35 H         -3.226085   -2.928237   2.130994 H        1 UNL1     0.1085
     36 H         -4.854879   -2.944158   3.409485 H        1 UNL1     0.0691
     37 H         -2.787935   0.689426   4.484198 H        1 UNL1     0.0691
     38 H         -3.367165   -1.026615   9.011042 H        1 UNL1     0.0385
     39 H         -4.928351   -0.60824   9.743299 H        1 UNL1     0.0385
     40 H         -3.683401   1.384793   8.82283 H        1 UNL1     0.0789
     41 H         -5.356886   1.946072   5.929455 H        1 UNL1     0.0623
     42 H         -7.482124   3.169398   5.708057 H        1 UNL1     0.0654
     43 H         -8.393312   2.355161   9.82584 H        1 UNL1     0.0654
     44 H         -6.319896   1.110368   10.065403 H        1 UNL1     0.0623
     45 H         -8.971566   4.474656   7.336512 H        1 UNL1     0.2921
     46 H         -5.437893   -3.902665   6.43966 H        1 UNL1     0.2922
     47 H         0.51195   0.344649   2.268203 H        1 UNL1     0.2126
     48 H         1.185028   -1.896846   -0.293868 H        1 UNL1     0.2101
     49 H         -2.010396   0.956879   -0.902394 H        1 UNL1     0.2100
     50 H         -2.701144   -3.306534   -1.181249 H        1 UNL1     0.2102
@<TRIPOS>BOND
     1     1     2    1
     2     1     6    1
     3     2     3    1
     4     3     4    1
     5     3    29    1
     6     3    33    1
     7     4     5    1
     8     5     6    1
     9     5     7    1
    10     5    35    1
    11     7     8    1
    12     8     9   ar
    13     8    13   ar
    14     9    10   ar
    15     9    36    1
    16    10    11   ar
    17    10    26    1
    18    11    12   ar
    19    11    14    1
    20    12    13   ar
    21    12    17    1
    22    13    37    1
    23    14    15    1
    24    14    25    2
    25    15    16    1
    26    15    38    1
    27    15    39    1
    28    16    17    1
    29    16    18    1
    30    16    40    1
    31    18    19   ar
    32    18    23   ar
    33    19    20   ar
    34    19    41    1
    35    20    21   ar
    36    20    42    1
    37    21    22   ar
    38    21    24    1
    39    22    23   ar
    40    22    43    1
    41    23    44    1
    42    24    45    1
    43    26    46    1
    44    27    47    1
    45    28    48    1
    46    29    49    1
    47    30    50    1
    48     1    31    1
    49     1    27    1
    50     2    32    1
    51     2    28    1
    52     4    34    1
    53     4    30    1
