@<TRIPOS>MOLECULE
*****
 50 53 0 0 0
SMALL
GASTEIGER

@<TRIPOS>ATOM
     1 C         -0.330168   -1.334022   1.697698 C.3        1 UNL1     0.1889
     2 C         -0.463001   -0.97566   0.193081 C.3        1 UNL1     0.1342
     3 C         -1.904773   -0.959922   -0.337496 C.3        1 UNL1     0.1174
     4 C         -2.790869   -2.020698   0.320308 C.3        1 UNL1     0.1456
     5 C         -2.636543   -2.051581   1.851841 C.3        1 UNL1     0.2326
     6 O         -1.271226   -2.272137   2.198443 O.3        1 UNL1     -0.3076
     7 O         -3.20925   -0.906317   2.508879 O.3        1 UNL1     -0.4605
     8 C         -3.717135   -1.125843   3.776707 C.ar        1 UNL1     0.1310
     9 C         -4.533931   -2.199369   4.147771 C.ar        1 UNL1     0.0226
     10 C         -4.984909   -2.34406   5.465187 C.ar        1 UNL1     0.1343
     11 C         -4.610112   -1.430817   6.449745 C.ar        1 UNL1     0.1007
     12 C         -3.82848   -0.332172   6.082576 C.ar        1 UNL1     0.1389
     13 C         -3.377331   -0.185469   4.757294 C.ar        1 UNL1     0.0229
     14 C         -4.988621   -1.581412   7.873896 C.2        1 UNL1     0.1740
     15 C         -4.317223   -0.637256   8.827492 C.3        1 UNL1     0.0520
     16 C         -4.24765   0.737013   8.175956 C.3        1 UNL1     0.1322
     17 O         -3.49111   0.683857   6.946366 O.3        1 UNL1     -0.4828
     18 C         -5.606424   1.431194   8.055242 C.ar        1 UNL1     -0.0067
     19 C         -5.986175   2.000466   6.822387 C.ar        1 UNL1     -0.0516
     20 C         -7.200991   2.683689   6.690509 C.ar        1 UNL1     -0.0198
     21 C         -8.039571   2.810593   7.783443 C.ar        1 UNL1     0.1169
     22 C         -7.708626   2.232047   9.001884 C.ar        1 UNL1     -0.0198
     23 C         -6.502371   1.532903   9.129173 C.ar        1 UNL1     -0.0516
     24 O         -9.19682   3.515362   7.626996 O.3        1 UNL1     -0.5068
     25 O         -5.7376   -2.463862   8.284747 O.2        1 UNL1     -0.2917
     26 O         -5.779777   -3.412674   5.761554 O.3        1 UNL1     -0.5058
     27 O         -0.222301   -0.19887   2.541843 O.3        1 UNL1     -0.3648
     28 O         0.265254   -1.952068   -0.574368 O.3        1 UNL1     -0.3841
     29 O         -2.460852   0.353934   -0.255701 O.3        1 UNL1     -0.3863
     30 O         -2.445467   -3.319963   -0.20723 O.3        1 UNL1     -0.3829
     31 H         0.63023   -1.848193   1.813206 H        1 UNL1     0.0937
     32 H         0.0   0.0   0.0 H        1 UNL1     0.0671
     33 H         -1.8699   -1.195718   -1.410298 H        1 UNL1     0.0649
     34 H         -3.841282   -1.840484   0.066227 H        1 UNL1     0.0683
     35 H         -3.191546   -2.948007   2.155602 H        1 UNL1     0.1085
     36 H         -4.814281   -2.973251   3.441633 H        1 UNL1     0.0691
     37 H         -2.770871   0.679316   4.496823 H        1 UNL1     0.0691
     38 H         -3.314926   -1.029111   9.030905 H        1 UNL1     0.0385
     39 H         -4.875835   -0.621055   9.769547 H        1 UNL1     0.0385
     40 H         -3.651019   1.379227   8.837857 H        1 UNL1     0.0789
     41 H         -5.341283   1.922502   5.951935 H        1 UNL1     0.0623
     42 H         -7.47711   3.128535   5.73768 H        1 UNL1     0.0654
     43 H         -8.364931   2.312459   9.860201 H        1 UNL1     0.0654
     44 H         -6.280677   1.084569   10.092861 H        1 UNL1     0.0623
     45 H         -8.970262   4.424001   7.370552 H        1 UNL1     0.2921
     46 H         -5.375238   -3.928201   6.47709 H        1 UNL1     0.2922
     47 H         0.520693   0.355159   2.264588 H        1 UNL1     0.2126
     48 H         1.198736   -1.888094   -0.294633 H        1 UNL1     0.2101
     49 H         -2.022711   0.938109   -0.894893 H        1 UNL1     0.2100
     50 H         -2.680437   -3.331441   -1.158213 H        1 UNL1     0.2102
@<TRIPOS>BOND
     1     1     2    1
     2     1     6    1
     3     2     3    1
     4     3     4    1
     5     3    29    1
     6     3    33    1
     7     4     5    1
     8     5     6    1
     9     5     7    1
    10     5    35    1
    11     7     8    1
    12     8     9   ar
    13     8    13   ar
    14     9    10   ar
    15     9    36    1
    16    10    11   ar
    17    10    26    1
    18    11    12   ar
    19    11    14    1
    20    12    13   ar
    21    12    17    1
    22    13    37    1
    23    14    15    1
    24    14    25    2
    25    15    16    1
    26    15    38    1
    27    15    39    1
    28    16    17    1
    29    16    18    1
    30    16    40    1
    31    18    19   ar
    32    18    23   ar
    33    19    20   ar
    34    19    41    1
    35    20    21   ar
    36    20    42    1
    37    21    22   ar
    38    21    24    1
    39    22    23   ar
    40    22    43    1
    41    23    44    1
    42    24    45    1
    43    26    46    1
    44    27    47    1
    45    28    48    1
    46    29    49    1
    47    30    50    1
    48     1    31    1
    49     1    27    1
    50     2    32    1
    51     2    28    1
    52     4    34    1
    53     4    30    1
