@<TRIPOS>MOLECULE
*****
 50 53 0 0 0
SMALL
GASTEIGER

@<TRIPOS>ATOM
     1 C         0.243201   -1.779778   1.242597 C.3        1 UNL1     0.1889
     2 C         -0.336714   -1.044109   0.004684 C.3        1 UNL1     0.1342
     3 C         -1.869097   -1.076925   -0.101106 C.3        1 UNL1     0.1174
     4 C         -2.471718   -2.386081   0.414719 C.3        1 UNL1     0.1456
     5 C         -1.88032   -2.814362   1.770148 C.3        1 UNL1     0.2326
     6 O         -0.463626   -2.936454   1.665551 O.3        1 UNL1     -0.3076
     7 O         -2.296982   -1.980355   2.866572 O.3        1 UNL1     -0.4605
     8 C         -2.416059   -2.607246   4.093909 C.ar        1 UNL1     0.1310
     9 C         -3.044425   -3.836947   4.318165 C.ar        1 UNL1     0.0226
     10 C         -3.098454   -4.399126   5.599156 C.ar        1 UNL1     0.1343
     11 C         -2.504017   -3.755932   6.683954 C.ar        1 UNL1     0.1007
     12 C         -1.909415   -2.507902   6.479865 C.ar        1 UNL1     0.1389
     13 C         -1.857533   -1.941598   5.192217 C.ar        1 UNL1     0.0229
     14 C         -2.458231   -4.344172   8.042642 C.2        1 UNL1     0.1740
     15 C         -1.589721   -3.624984   9.032596 C.3        1 UNL1     0.0520
     16 C         -1.770443   -2.126525   8.832807 C.3        1 UNL1     0.1322
     17 O         -1.389658   -1.738034   7.49447 O.3        1 UNL1     -0.4828
     18 C         -3.138778   -1.605967   9.279353 C.ar        1 UNL1     -0.0067
     19 C         -3.869666   -0.756643   8.423394 C.ar        1 UNL1     -0.0516
     20 C         -5.102421   -0.224924   8.820322 C.ar        1 UNL1     -0.0198
     21 C         -5.610461   -0.528356   10.070783 C.ar        1 UNL1     0.1169
     22 C         -4.930004   -1.388505   10.922816 C.ar        1 UNL1     -0.0198
     23 C         -3.706034   -1.935083   10.518828 C.ar        1 UNL1     -0.0516
     24 O         -6.795708   0.038254   10.437586 O.3        1 UNL1     -0.5068
     25 O         -3.019247   -5.394386   8.34397 O.2        1 UNL1     -0.2917
     26 O         -3.727096   -5.600552   5.750714 O.3        1 UNL1     -0.5058
     27 O         0.53173   -0.915483   2.33004 O.3        1 UNL1     -0.3648
     28 O         0.188088   -1.666218   -1.182863 O.3        1 UNL1     -0.3841
     29 O         -2.444649   0.077452   0.513944 O.3        1 UNL1     -0.3863
     30 O         -2.227048   -3.432681   -0.549882 O.3        1 UNL1     -0.3829
     31 H         1.221149   -2.172441   0.943409 H        1 UNL1     0.0937
     32 H         0.0   0.0   0.0 H        1 UNL1     0.0671
     33 H         -2.133436   -1.002938   -1.165235 H        1 UNL1     0.0649
     34 H         -3.558567   -2.285568   0.509894 H        1 UNL1     0.0683
     35 H         -2.277102   -3.825656   1.924189 H        1 UNL1     0.1085
     36 H         -3.476313   -4.412906   3.507076 H        1 UNL1     0.0691
     37 H         -1.389877   -0.968296   5.060023 H        1 UNL1     0.0691
     38 H         -0.553696   -3.926385   8.844615 H        1 UNL1     0.0385
     39 H         -1.860187   -3.943284   10.045173 H        1 UNL1     0.0385
     40 H         -1.041831   -1.623122   9.482599 H        1 UNL1     0.0789
     41 H         -3.488125   -0.495986   7.440472 H        1 UNL1     0.0623
     42 H         -5.650832   0.438325   8.155973 H        1 UNL1     0.0654
     43 H         -5.325966   -1.644771   11.89824 H        1 UNL1     0.0654
     44 H         -3.206708   -2.611715   11.205623 H        1 UNL1     0.0623
     45 H         -6.680652   1.002065   10.46098 H        1 UNL1     0.2921
     46 H         -3.114214   -6.238337   6.149485 H        1 UNL1     0.2922
     47 H         1.117004   -0.200557   2.043344 H        1 UNL1     0.2126
     48 H         1.153575   -1.519766   -1.171988 H        1 UNL1     0.2101
     49 H         -2.247448   0.866438   -0.01559 H        1 UNL1     0.2100
     50 H         -3.085891   -3.679466   -0.951376 H        1 UNL1     0.2102
@<TRIPOS>BOND
     1     1     2    1
     2     1     6    1
     3     2     3    1
     4     3     4    1
     5     3    29    1
     6     3    33    1
     7     4     5    1
     8     5     6    1
     9     5     7    1
    10     5    35    1
    11     7     8    1
    12     8     9   ar
    13     8    13   ar
    14     9    10   ar
    15     9    36    1
    16    10    11   ar
    17    10    26    1
    18    11    12   ar
    19    11    14    1
    20    12    13   ar
    21    12    17    1
    22    13    37    1
    23    14    15    1
    24    14    25    2
    25    15    16    1
    26    15    38    1
    27    15    39    1
    28    16    17    1
    29    16    18    1
    30    16    40    1
    31    18    19   ar
    32    18    23   ar
    33    19    20   ar
    34    19    41    1
    35    20    21   ar
    36    20    42    1
    37    21    22   ar
    38    21    24    1
    39    22    23   ar
    40    22    43    1
    41    23    44    1
    42    24    45    1
    43    26    46    1
    44    27    47    1
    45    28    48    1
    46    29    49    1
    47    30    50    1
    48     1    31    1
    49     1    27    1
    50     2    32    1
    51     2    28    1
    52     4    34    1
    53     4    30    1
