@<TRIPOS>MOLECULE
*****
 50 53 0 0 0
SMALL
GASTEIGER

@<TRIPOS>ATOM
     1 C         0.288408   -1.147514   -1.835984 C.3        1 UNL1     0.1889
     2 C         -0.518277   -0.156789   -0.954132 C.3        1 UNL1     0.1342
     3 C         -1.967596   -0.582206   -0.673137 C.3        1 UNL1     0.1174
     4 C         -2.608832   -1.31936   -1.8515 C.3        1 UNL1     0.1456
     5 C         -1.689395   -2.405531   -2.439062 C.3        1 UNL1     0.2326
     6 O         -0.449419   -1.827602   -2.840716 O.3        1 UNL1     -0.3076
     7 O         -1.528865   -3.547762   -1.57833 O.3        1 UNL1     -0.4605
     8 C         -0.260942   -3.743625   -1.06109 C.ar        1 UNL1     0.1310
     9 C         0.025886   -4.245926   0.212771 C.ar        1 UNL1     0.0226
     10 C         1.347151   -4.424466   0.639722 C.ar        1 UNL1     0.1343
     11 C         2.414536   -4.12711   -0.20651 C.ar        1 UNL1     0.1007
     12 C         2.141318   -3.586295   -1.465738 C.ar        1 UNL1     0.1389
     13 C         0.81275   -3.404388   -1.893812 C.ar        1 UNL1     0.0229
     14 C         3.827644   -4.375112   0.16197 C.2        1 UNL1     0.1740
     15 C         4.826317   -4.208022   -0.945406 C.3        1 UNL1     0.0520
     16 C         4.433212   -2.989274   -1.768863 C.3        1 UNL1     0.1322
     17 O         3.115652   -3.157543   -2.337008 O.3        1 UNL1     -0.4828
     18 C         4.645155   -1.659511   -1.041172 C.ar        1 UNL1     -0.0067
     19 C         5.883406   -1.400558   -0.418362 C.ar        1 UNL1     -0.0516
     20 C         6.094302   -0.214948   0.295651 C.ar        1 UNL1     -0.0198
     21 C         5.074757   0.714261   0.400171 C.ar        1 UNL1     0.1169
     22 C         3.855482   0.502817   -0.230304 C.ar        1 UNL1     -0.0198
     23 C         3.650521   -0.674378   -0.959866 C.ar        1 UNL1     -0.0516
     24 O         5.304238   1.839973   1.135366 O.3        1 UNL1     -0.5068
     25 O         4.177847   -4.770387   1.270843 O.2        1 UNL1     -0.2917
     26 O         1.559007   -4.917294   1.894242 O.3        1 UNL1     -0.5058
     27 O         1.09927   -2.039273   -1.087614 O.3        1 UNL1     -0.3648
     28 O         -0.567895   1.115546   -1.626001 O.3        1 UNL1     -0.3841
     29 O         -2.052683   -1.315196   0.550636 O.3        1 UNL1     -0.3863
     30 O         -2.925118   -0.367298   -2.890361 O.3        1 UNL1     -0.3829
     31 H         1.004555   -0.546427   -2.406868 H        1 UNL1     0.0937
     32 H         0.0   0.0   0.0 H        1 UNL1     0.0671
     33 H         -2.558845   0.329478   -0.508887 H        1 UNL1     0.0649
     34 H         -3.553624   -1.776509   -1.537201 H        1 UNL1     0.0683
     35 H         -2.205154   -2.721937   -3.354354 H        1 UNL1     0.1085
     36 H         -0.759604   -4.548379   0.896619 H        1 UNL1     0.0691
     37 H         0.62674   -2.980578   -2.878331 H        1 UNL1     0.0691
     38 H         4.803038   -5.119201   -1.552643 H        1 UNL1     0.0385
     39 H         5.828167   -4.110305   -0.513517 H        1 UNL1     0.0385
     40 H         5.104522   -2.955342   -2.637605 H        1 UNL1     0.0789
     41 H         6.696517   -2.118152   -0.478018 H        1 UNL1     0.0623
     42 H         7.049591   -0.03221   0.781491 H        1 UNL1     0.0654
     43 H         3.055351   1.23066   -0.167502 H        1 UNL1     0.0654
     44 H         2.689316   -0.80189   -1.448405 H        1 UNL1     0.0623
     45 H         4.597961   2.478895   0.946507 H        1 UNL1     0.2921
     46 H         1.121115   -5.778702   1.981646 H        1 UNL1     0.2922
     47 H         0.646904   -2.299751   -0.273135 H        1 UNL1     0.2126
     48 H         -0.696473   1.79247   -0.93392 H        1 UNL1     0.2101
     49 H         -2.981387   -1.507821   0.756054 H        1 UNL1     0.2100
     50 H         -3.455605   -0.829779   -3.571835 H        1 UNL1     0.2102
@<TRIPOS>BOND
     1     1     2    1
     2     1     6    1
     3     2     3    1
     4     3     4    1
     5     3    29    1
     6     3    33    1
     7     4     5    1
     8     5     6    1
     9     5     7    1
    10     5    35    1
    11     7     8    1
    12     8     9   ar
    13     8    13   ar
    14     9    10   ar
    15     9    36    1
    16    10    11   ar
    17    10    26    1
    18    11    12   ar
    19    11    14    1
    20    12    13   ar
    21    12    17    1
    22    13    37    1
    23    14    15    1
    24    14    25    2
    25    15    16    1
    26    15    38    1
    27    15    39    1
    28    16    17    1
    29    16    18    1
    30    16    40    1
    31    18    19   ar
    32    18    23   ar
    33    19    20   ar
    34    19    41    1
    35    20    21   ar
    36    20    42    1
    37    21    22   ar
    38    21    24    1
    39    22    23   ar
    40    22    43    1
    41    23    44    1
    42    24    45    1
    43    26    46    1
    44    27    47    1
    45    28    48    1
    46    29    49    1
    47    30    50    1
    48     1    31    1
    49     1    27    1
    50     2    32    1
    51     2    28    1
    52     4    34    1
    53     4    30    1
