@<TRIPOS>MOLECULE
*****
 50 53 0 0 0
SMALL
GASTEIGER

@<TRIPOS>ATOM
     1 C         1.519692   1.250204   0.947802 C.3        1 UNL1     0.1889
     2 C         0.320269   0.266924   1.014762 C.3        1 UNL1     0.1342
     3 C         -0.892058   0.786979   1.802334 C.3        1 UNL1     0.1174
     4 C         -0.494614   1.657025   2.997397 C.3        1 UNL1     0.1456
     5 C         0.573802   2.70475   2.635287 C.3        1 UNL1     0.2326
     6 O         1.725197   2.058789   2.096869 O.3        1 UNL1     -0.3076
     7 O         0.076588   3.764913   1.798536 O.3        1 UNL1     -0.4605
     8 C         0.699441   4.991892   1.940325 C.ar        1 UNL1     0.1310
     9 C         0.730152   5.754384   3.112913 C.ar        1 UNL1     0.0226
     10 C         1.403948   6.980577   3.161418 C.ar        1 UNL1     0.1343
     11 C         2.084169   7.463186   2.044177 C.ar        1 UNL1     0.1007
     12 C         2.02619   6.73046   0.855676 C.ar        1 UNL1     0.1389
     13 C         1.346404   5.498837   0.806409 C.ar        1 UNL1     0.0229
     14 C         2.882012   8.711067   2.064031 C.2        1 UNL1     0.1740
     15 C         3.725184   8.962023   0.848453 C.3        1 UNL1     0.0520
     16 C         2.925043   8.562685   -0.383724 C.3        1 UNL1     0.1322
     17 O         2.568062   7.163767   -0.332131 O.3        1 UNL1     -0.4828
     18 C         1.758402   9.504107   -0.692589 C.ar        1 UNL1     -0.0067
     19 C         1.055666   9.360904   -1.906619 C.ar        1 UNL1     -0.0516
     20 C         0.014579   10.234992   -2.241386 C.ar        1 UNL1     -0.0198
     21 C         -0.327717   11.258528   -1.375917 C.ar        1 UNL1     0.1169
     22 C         0.32352   11.404648   -0.157977 C.ar        1 UNL1     -0.0198
     23 C         1.352358   10.519384   0.185326 C.ar        1 UNL1     -0.0516
     24 O         -1.321535   12.113323   -1.752816 O.3        1 UNL1     -0.5068
     25 O         2.931153   9.466826   3.030932 O.2        1 UNL1     -0.2917
     26 O         1.395007   7.675909   4.335309 O.3        1 UNL1     -0.5058
     27 O         1.55636   2.01679   -0.245424 O.3        1 UNL1     -0.3648
     28 O         0.759414   -0.945232   1.655492 O.3        1 UNL1     -0.3841
     29 O         -1.822576   1.433963   0.931886 O.3        1 UNL1     -0.3863
     30 O         0.021935   0.811423   4.048027 O.3        1 UNL1     -0.3829
     31 H         2.425573   0.635935   0.901614 H        1 UNL1     0.0937
     32 H         -0.0   0.0   0.0 H        1 UNL1     0.0671
     33 H         -1.427517   -0.083262   2.206914 H        1 UNL1     0.0649
     34 H         -1.377733   2.165313   3.400071 H        1 UNL1     0.0683
     35 H         0.86887   3.12733   3.603915 H        1 UNL1     0.1085
     36 H         0.26824   5.407653   4.03081 H        1 UNL1     0.0691
     37 H         1.31512   4.948179   -0.131296 H        1 UNL1     0.0691
     38 H         4.632399   8.355888   0.943784 H        1 UNL1     0.0385
     39 H         4.019298   10.016928   0.827178 H        1 UNL1     0.0385
     40 H         3.599181   8.642334   -1.247272 H        1 UNL1     0.0789
     41 H         1.311257   8.571169   -2.607079 H        1 UNL1     0.0623
     42 H         -0.511821   10.121516   -3.185863 H        1 UNL1     0.0654
     43 H         0.053458   12.193473   0.533927 H        1 UNL1     0.0654
     44 H         1.832421   10.656482   1.149478 H        1 UNL1     0.0623
     45 H         -1.424074   12.058456   -2.716763 H        1 UNL1     0.2921
     46 H         2.287452   8.008071   4.521376 H        1 UNL1     0.2922
     47 H         1.040909   2.828347   -0.137969 H        1 UNL1     0.2126
     48 H         0.046155   -1.212829   2.266546 H        1 UNL1     0.2101
     49 H         -2.675616   0.972009   0.958646 H        1 UNL1     0.2100
     50 H         0.99892   0.883161   4.039873 H        1 UNL1     0.2102
@<TRIPOS>BOND
     1     1     2    1
     2     1     6    1
     3     2     3    1
     4     3     4    1
     5     3    29    1
     6     3    33    1
     7     4     5    1
     8     5     6    1
     9     5     7    1
    10     5    35    1
    11     7     8    1
    12     8     9   ar
    13     8    13   ar
    14     9    10   ar
    15     9    36    1
    16    10    11   ar
    17    10    26    1
    18    11    12   ar
    19    11    14    1
    20    12    13   ar
    21    12    17    1
    22    13    37    1
    23    14    15    1
    24    14    25    2
    25    15    16    1
    26    15    38    1
    27    15    39    1
    28    16    17    1
    29    16    18    1
    30    16    40    1
    31    18    19   ar
    32    18    23   ar
    33    19    20   ar
    34    19    41    1
    35    20    21   ar
    36    20    42    1
    37    21    22   ar
    38    21    24    1
    39    22    23   ar
    40    22    43    1
    41    23    44    1
    42    24    45    1
    43    26    46    1
    44    27    47    1
    45    28    48    1
    46    29    49    1
    47    30    50    1
    48     1    31    1
    49     1    27    1
    50     2    32    1
    51     2    28    1
    52     4    34    1
    53     4    30    1
