@<TRIPOS>MOLECULE
*****
 50 53 0 0 0
SMALL
GASTEIGER

@<TRIPOS>ATOM
     1 C         0.935542   1.781877   -0.848811 C.3        1 UNL1     0.1889
     2 C         -0.053704   1.08847   0.126135 C.3        1 UNL1     0.1342
     3 C         -1.515898   1.537948   -0.016774 C.3        1 UNL1     0.1174
     4 C         -1.648662   3.018276   -0.382998 C.3        1 UNL1     0.1456
     5 C         -0.70195   3.431015   -1.524815 C.3        1 UNL1     0.2326
     6 O         0.646612   3.134756   -1.169176 O.3        1 UNL1     -0.3076
     7 O         -1.080374   2.894346   -2.80548 O.3        1 UNL1     -0.4605
     8 C         -2.309858   2.262632   -2.858716 C.ar        1 UNL1     0.1310
     9 C         -2.523917   0.938228   -3.255497 C.ar        1 UNL1     0.0226
     10 C         -3.808866   0.382535   -3.259317 C.ar        1 UNL1     0.1343
     11 C         -4.908954   1.131256   -2.843309 C.ar        1 UNL1     0.1007
     12 C         -4.713388   2.467449   -2.483968 C.ar        1 UNL1     0.1389
     13 C         -3.421644   3.026758   -2.482735 C.ar        1 UNL1     0.0229
     14 C         -6.276044   0.56905   -2.747684 C.2        1 UNL1     0.1740
     15 C         -7.291835   1.443229   -2.072754 C.3        1 UNL1     0.0520
     16 C         -7.064822   2.880318   -2.521307 C.3        1 UNL1     0.1322
     17 O         -5.738549   3.326259   -2.161857 O.3        1 UNL1     -0.4828
     18 C         -7.446816   3.13786   -3.980922 C.ar        1 UNL1     -0.0067
     19 C         -7.792469   4.443381   -4.386326 C.ar        1 UNL1     -0.0516
     20 C         -8.192355   4.704682   -5.702295 C.ar        1 UNL1     -0.0198
     21 C         -8.257617   3.670096   -6.618374 C.ar        1 UNL1     0.1169
     22 C         -7.891348   2.37985   -6.257886 C.ar        1 UNL1     -0.0198
     23 C         -7.473723   2.121612   -4.946795 C.ar        1 UNL1     -0.0516
     24 O         -8.687767   3.955864   -7.880796 O.3        1 UNL1     -0.5068
     25 O         -6.567539   -0.566033   -3.115247 O.2        1 UNL1     -0.2917
     26 O         -3.94991   -0.914522   -3.658482 O.3        1 UNL1     -0.5058
     27 O         1.214283   1.0166   -2.010466 O.3        1 UNL1     -0.3648
     28 O         0.354658   1.381581   1.475221 O.3        1 UNL1     -0.3841
     29 O         -2.224683   0.680255   -0.9135 O.3        1 UNL1     -0.3863
     30 O         -1.351971   3.822317   0.779405 O.3        1 UNL1     -0.3829
     31 H         1.897526   1.841854   -0.328169 H        1 UNL1     0.0937
     32 H         0.0   0.0   0.0 H        1 UNL1     0.0671
     33 H         -2.003892   1.407   0.959154 H        1 UNL1     0.0649
     34 H         -2.681892   3.240941   -0.671542 H        1 UNL1     0.0683
     35 H         -0.789929   4.524153   -1.559291 H        1 UNL1     0.1085
     36 H         -1.70318   0.287402   -3.536455 H        1 UNL1     0.0691
     37 H         -3.296236   4.069693   -2.1998 H        1 UNL1     0.0691
     38 H         -7.151355   1.340109   -0.991478 H        1 UNL1     0.0385
     39 H         -8.296345   1.085194   -2.322853 H        1 UNL1     0.0385
     40 H         -7.737788   3.514575   -1.928554 H        1 UNL1     0.0789
     41 H         -7.758224   5.271013   -3.683828 H        1 UNL1     0.0623
     42 H         -8.46783   5.713508   -5.999608 H        1 UNL1     0.0654
     43 H         -7.924341   1.565023   -6.971244 H        1 UNL1     0.0654
     44 H         -7.184759   1.10389   -4.702691 H        1 UNL1     0.0623
     45 H         -8.509576   4.893202   -8.060691 H        1 UNL1     0.2921
     46 H         -3.157887   -1.190916   -4.146044 H        1 UNL1     0.2922
     47 H         0.506676   0.375783   -2.167006 H        1 UNL1     0.2126
     48 H         0.743624   0.560895   1.834264 H        1 UNL1     0.2101
     49 H         -3.032798   1.120441   -1.22169 H        1 UNL1     0.2100
     50 H         -2.123753   4.400832   0.95083 H        1 UNL1     0.2102
@<TRIPOS>BOND
     1     1     2    1
     2     1     6    1
     3     2     3    1
     4     3     4    1
     5     3    29    1
     6     3    33    1
     7     4     5    1
     8     5     6    1
     9     5     7    1
    10     5    35    1
    11     7     8    1
    12     8     9   ar
    13     8    13   ar
    14     9    10   ar
    15     9    36    1
    16    10    11   ar
    17    10    26    1
    18    11    12   ar
    19    11    14    1
    20    12    13   ar
    21    12    17    1
    22    13    37    1
    23    14    15    1
    24    14    25    2
    25    15    16    1
    26    15    38    1
    27    15    39    1
    28    16    17    1
    29    16    18    1
    30    16    40    1
    31    18    19   ar
    32    18    23   ar
    33    19    20   ar
    34    19    41    1
    35    20    21   ar
    36    20    42    1
    37    21    22   ar
    38    21    24    1
    39    22    23   ar
    40    22    43    1
    41    23    44    1
    42    24    45    1
    43    26    46    1
    44    27    47    1
    45    28    48    1
    46    29    49    1
    47    30    50    1
    48     1    31    1
    49     1    27    1
    50     2    32    1
    51     2    28    1
    52     4    34    1
    53     4    30    1
