@<TRIPOS>MOLECULE
*****
 50 53 0 0 0
SMALL
GASTEIGER

@<TRIPOS>ATOM
     1 C         0.926326   0.044849   1.977552 C.3        1 UNL1     0.1889
     2 C         -0.318077   0.022145   1.049713 C.3        1 UNL1     0.1342
     3 C         -1.291529   1.193139   1.253748 C.3        1 UNL1     0.1174
     4 C         -1.382585   1.641616   2.714465 C.3        1 UNL1     0.1456
     5 C         0.000923   1.792652   3.372841 C.3        1 UNL1     0.2326
     6 O         0.718788   0.564061   3.282827 O.3        1 UNL1     -0.3076
     7 O         0.748002   2.921637   2.884389 O.3        1 UNL1     -0.4605
     8 C         1.602724   3.521392   3.791732 C.ar        1 UNL1     0.1310
     9 C         1.282045   3.846966   5.114028 C.ar        1 UNL1     0.0226
     10 C         2.22507   4.438826   5.962739 C.ar        1 UNL1     0.1343
     11 C         3.520243   4.697933   5.516385 C.ar        1 UNL1     0.1007
     12 C         3.840047   4.414942   4.185811 C.ar        1 UNL1     0.1389
     13 C         2.890869   3.822264   3.331865 C.ar        1 UNL1     0.0229
     14 C         4.580493   5.244388   6.394684 C.2        1 UNL1     0.1740
     15 C         5.964644   5.249956   5.815335 C.3        1 UNL1     0.0520
     16 C         5.872474   5.657111   4.351201 C.3        1 UNL1     0.1322
     17 O         5.050137   4.727893   3.611347 O.3        1 UNL1     -0.4828
     18 C         5.51056   7.129621   4.142743 C.ar        1 UNL1     -0.0067
     19 C         4.483415   7.468987   3.238299 C.ar        1 UNL1     -0.0516
     20 C         4.159421   8.807916   2.988777 C.ar        1 UNL1     -0.0198
     21 C         4.858533   9.814609   3.630368 C.ar        1 UNL1     0.1169
     22 C         5.852637   9.511341   4.551576 C.ar        1 UNL1     -0.0198
     23 C         6.164343   8.172149   4.815126 C.ar        1 UNL1     -0.0516
     24 O         4.54062   11.107416   3.333753 O.3        1 UNL1     -0.5068
     25 O         4.381722   5.600957   7.553059 O.2        1 UNL1     -0.2917
     26 O         1.848537   4.732619   7.240821 O.3        1 UNL1     -0.5058
     27 O         2.076665   0.607501   1.366872 O.3        1 UNL1     -0.3648
     28 O         -1.050468   -1.192098   1.298555 O.3        1 UNL1     -0.3841
     29 O         -0.985726   2.267841   0.362887 O.3        1 UNL1     -0.3863
     30 O         -2.148403   0.671186   3.46111 O.3        1 UNL1     -0.3829
     31 H         1.200858   -1.000155   2.158323 H        1 UNL1     0.0937
     32 H         0.0   0.0   -0.0 H        1 UNL1     0.0671
     33 H         -2.294403   0.84999   0.963555 H        1 UNL1     0.0649
     34 H         -1.920415   2.593867   2.780481 H        1 UNL1     0.0683
     35 H         -0.22717   1.951761   4.434226 H        1 UNL1     0.1085
     36 H         0.30986   3.619729   5.537513 H        1 UNL1     0.0691
     37 H         3.164412   3.612833   2.29997 H        1 UNL1     0.0691
     38 H         6.371171   4.238277   5.919105 H        1 UNL1     0.0385
     39 H         6.594106   5.932763   6.396137 H        1 UNL1     0.0385
     40 H         6.87552   5.540403   3.919001 H        1 UNL1     0.0789
     41 H         3.926012   6.697451   2.715151 H        1 UNL1     0.0623
     42 H         3.373369   9.057024   2.280201 H        1 UNL1     0.0654
     43 H         6.396162   10.291603   5.070887 H        1 UNL1     0.0654
     44 H         6.939363   7.971537   5.548573 H        1 UNL1     0.0623
     45 H         4.244409   11.54503   4.148289 H        1 UNL1     0.2921
     46 H         2.447876   4.292294   7.863973 H        1 UNL1     0.2922
     47 H         2.282346   0.139694   0.545463 H        1 UNL1     0.2126
     48 H         -0.451155   -1.930627   1.076898 H        1 UNL1     0.2101
     49 H         -1.19518   2.010328   -0.549039 H        1 UNL1     0.2100
     50 H         -3.067266   0.686502   3.121745 H        1 UNL1     0.2102
@<TRIPOS>BOND
     1     1     2    1
     2     1     6    1
     3     2     3    1
     4     3     4    1
     5     3    29    1
     6     3    33    1
     7     4     5    1
     8     5     6    1
     9     5     7    1
    10     5    35    1
    11     7     8    1
    12     8     9   ar
    13     8    13   ar
    14     9    10   ar
    15     9    36    1
    16    10    11   ar
    17    10    26    1
    18    11    12   ar
    19    11    14    1
    20    12    13   ar
    21    12    17    1
    22    13    37    1
    23    14    15    1
    24    14    25    2
    25    15    16    1
    26    15    38    1
    27    15    39    1
    28    16    17    1
    29    16    18    1
    30    16    40    1
    31    18    19   ar
    32    18    23   ar
    33    19    20   ar
    34    19    41    1
    35    20    21   ar
    36    20    42    1
    37    21    22   ar
    38    21    24    1
    39    22    23   ar
    40    22    43    1
    41    23    44    1
    42    24    45    1
    43    26    46    1
    44    27    47    1
    45    28    48    1
    46    29    49    1
    47    30    50    1
    48     1    31    1
    49     1    27    1
    50     2    32    1
    51     2    28    1
    52     4    34    1
    53     4    30    1
