@<TRIPOS>MOLECULE
*****
 50 53 0 0 0
SMALL
GASTEIGER

@<TRIPOS>ATOM
     1 C         -1.441488   -1.32125   0.97325 C.3        1 UNL1     0.1889
     2 C         -0.874747   -0.600293   -0.279334 C.3        1 UNL1     0.1342
     3 C         -1.883224   0.295645   -1.014679 C.3        1 UNL1     0.1174
     4 C         -3.308034   -0.262841   -0.981117 C.3        1 UNL1     0.1456
     5 C         -3.724389   -0.733874   0.42428 C.3        1 UNL1     0.2326
     6 O         -2.804399   -1.713242   0.901067 O.3        1 UNL1     -0.3076
     7 O         -3.932704   0.346108   1.352485 O.3        1 UNL1     -0.4605
     8 C         -4.88982   0.131102   2.327794 C.ar        1 UNL1     0.1310
     9 C         -6.162951   -0.406203   2.109292 C.ar        1 UNL1     0.0226
     10 C         -7.057498   -0.601714   3.168283 C.ar        1 UNL1     0.1343
     11 C         -6.69144   -0.286475   4.476131 C.ar        1 UNL1     0.1007
     12 C         -5.438039   0.288881   4.701379 C.ar        1 UNL1     0.1389
     13 C         -4.539752   0.487819   3.636047 C.ar        1 UNL1     0.0229
     14 C         -7.565242   -0.550258   5.642768 C.2        1 UNL1     0.1740
     15 C         -6.928275   -0.357981   6.987703 C.3        1 UNL1     0.0520
     16 C         -6.049421   0.883957   6.931446 C.3        1 UNL1     0.1322
     17 O         -5.016749   0.736534   5.931984 O.3        1 UNL1     -0.4828
     18 C         -6.837541   2.192929   6.840993 C.ar        1 UNL1     -0.0067
     19 C         -6.480842   3.150336   5.869215 C.ar        1 UNL1     -0.0516
     20 C         -7.15005   4.377486   5.79031 C.ar        1 UNL1     -0.0198
     21 C         -8.170487   4.661575   6.680158 C.ar        1 UNL1     0.1169
     22 C         -8.566847   3.725611   7.626576 C.ar        1 UNL1     -0.0198
     23 C         -7.910082   2.491024   7.693747 C.ar        1 UNL1     -0.0516
     24 O         -8.773954   5.881979   6.597441 O.3        1 UNL1     -0.5068
     25 O         -8.712991   -0.976448   5.5452 O.2        1 UNL1     -0.2917
     26 O         -8.284365   -1.128713   2.887828 O.3        1 UNL1     -0.5058
     27 O         -1.152946   -0.65129   2.190084 O.3        1 UNL1     -0.3648
     28 O         -0.42559   -1.597626   -1.215438 O.3        1 UNL1     -0.3841
     29 O         -1.805105   1.641692   -0.541193 O.3        1 UNL1     -0.3863
     30 O         -3.400442   -1.38022   -1.891399 O.3        1 UNL1     -0.3829
     31 H         -0.90534   -2.272996   1.055734 H        1 UNL1     0.0937
     32 H         0.0   0.0   0.0 H        1 UNL1     0.0671
     33 H         -1.584144   0.340185   -2.071224 H        1 UNL1     0.0649
     34 H         -4.015637   0.496246   -1.332522 H        1 UNL1     0.0683
     35 H         -4.679751   -1.247495   0.258883 H        1 UNL1     0.1085
     36 H         -6.486582   -0.723415   1.12402 H        1 UNL1     0.0691
     37 H         -3.570362   0.938517   3.837659 H        1 UNL1     0.0691
     38 H         -6.334507   -1.25254   7.203873 H        1 UNL1     0.0385
     39 H         -7.712597   -0.276101   7.74791 H        1 UNL1     0.0385
     40 H         -5.504312   0.938163   7.883516 H        1 UNL1     0.0789
     41 H         -5.677237   2.955025   5.165139 H        1 UNL1     0.0623
     42 H         -6.857793   5.112303   5.044225 H        1 UNL1     0.0654
     43 H         -9.374696   3.931791   8.318515 H        1 UNL1     0.0654
     44 H         -8.252898   1.779326   8.438602 H        1 UNL1     0.0623
     45 H         -8.10267   6.566945   6.748824 H        1 UNL1     0.2921
     46 H         -8.418613   -1.933332   3.413164 H        1 UNL1     0.2922
     47 H         -0.198689   -0.522606   2.28332 H        1 UNL1     0.2126
     48 H         0.281119   -2.102365   -0.768747 H        1 UNL1     0.2101
     49 H         -0.965717   2.041289   -0.819662 H        1 UNL1     0.2100
     50 H         -3.270941   -1.039761   -2.800811 H        1 UNL1     0.2102
@<TRIPOS>BOND
     1     1     2    1
     2     1     6    1
     3     2     3    1
     4     3     4    1
     5     3    29    1
     6     3    33    1
     7     4     5    1
     8     5     6    1
     9     5     7    1
    10     5    35    1
    11     7     8    1
    12     8     9   ar
    13     8    13   ar
    14     9    10   ar
    15     9    36    1
    16    10    11   ar
    17    10    26    1
    18    11    12   ar
    19    11    14    1
    20    12    13   ar
    21    12    17    1
    22    13    37    1
    23    14    15    1
    24    14    25    2
    25    15    16    1
    26    15    38    1
    27    15    39    1
    28    16    17    1
    29    16    18    1
    30    16    40    1
    31    18    19   ar
    32    18    23   ar
    33    19    20   ar
    34    19    41    1
    35    20    21   ar
    36    20    42    1
    37    21    22   ar
    38    21    24    1
    39    22    23   ar
    40    22    43    1
    41    23    44    1
    42    24    45    1
    43    26    46    1
    44    27    47    1
    45    28    48    1
    46    29    49    1
    47    30    50    1
    48     1    31    1
    49     1    27    1
    50     2    32    1
    51     2    28    1
    52     4    34    1
    53     4    30    1
