@<TRIPOS>MOLECULE
*****
 50 53 0 0 0
SMALL
GASTEIGER

@<TRIPOS>ATOM
     1 C         -0.324014   -1.325082   1.705866 C.3        1 UNL1     0.1889
     2 C         -0.458049   -0.97681   0.198988 C.3        1 UNL1     0.1342
     3 C         -1.899655   -0.97182   -0.332247 C.3        1 UNL1     0.1174
     4 C         -2.780553   -2.033023   0.331819 C.3        1 UNL1     0.1456
     5 C         -2.626725   -2.053548   1.863576 C.3        1 UNL1     0.2326
     6 O         -1.260438   -2.264892   2.212088 O.3        1 UNL1     -0.3076
     7 O         -3.205608   -0.907172   2.513221 O.3        1 UNL1     -0.4605
     8 C         -3.712897   -1.121394   3.782195 C.ar        1 UNL1     0.1310
     9 C         -4.524307   -2.19678   4.159634 C.ar        1 UNL1     0.0226
     10 C         -4.975097   -2.335566   5.47775 C.ar        1 UNL1     0.1343
     11 C         -4.605433   -1.414274   6.456733 C.ar        1 UNL1     0.1007
     12 C         -3.829317   -0.313926   6.083018 C.ar        1 UNL1     0.1389
     13 C         -3.378363   -0.173177   4.757024 C.ar        1 UNL1     0.0229
     14 C         -4.983769   -1.557924   7.881647 C.2        1 UNL1     0.1740
     15 C         -4.317655   -0.604383   8.829593 C.3        1 UNL1     0.0520
     16 C         -4.254887   0.766133   8.169513 C.3        1 UNL1     0.1322
     17 O         -3.497557   0.709202   6.940579 O.3        1 UNL1     -0.4828
     18 C         -5.617169   1.452531   8.043929 C.ar        1 UNL1     -0.0067
     19 C         -5.998932   2.012948   6.807643 C.ar        1 UNL1     -0.0516
     20 C         -7.217193   2.689077   6.671063 C.ar        1 UNL1     -0.0198
     21 C         -8.057267   2.817678   7.762651 C.ar        1 UNL1     0.1169
     22 C         -7.724249   2.247652   8.984538 C.ar        1 UNL1     -0.0198
     23 C         -6.514462   1.555533   9.116612 C.ar        1 UNL1     -0.0516
     24 O         -9.218054   3.515517   7.601425 O.3        1 UNL1     -0.5068
     25 O         -5.728365   -2.441641   8.297706 O.2        1 UNL1     -0.2917
     26 O         -5.764573   -3.406394   5.780471 O.3        1 UNL1     -0.5058
     27 O         -0.22236   -0.18414   2.542947 O.3        1 UNL1     -0.3648
     28 O         0.275557   -1.954222   -0.56206 O.3        1 UNL1     -0.3841
     29 O         -2.462534   0.339636   -0.258879 O.3        1 UNL1     -0.3863
     30 O         -2.428234   -3.333759   -0.187457 O.3        1 UNL1     -0.3829
     31 H         0.638973   -1.833562   1.824963 H        1 UNL1     0.0937
     32 H         0.0   0.0   0.0 H        1 UNL1     0.0671
     33 H         -1.863109   -1.214126   -1.403541 H        1 UNL1     0.0649
     34 H         -3.831772   -1.859819   0.076202 H        1 UNL1     0.0683
     35 H         -3.177231   -2.950909   2.172711 H        1 UNL1     0.1085
     36 H         -4.800364   -2.976491   3.458232 H        1 UNL1     0.0691
     37 H         -2.776257   0.693082   4.491396 H        1 UNL1     0.0691
     38 H         -3.313438   -0.989786   9.035845 H        1 UNL1     0.0385
     39 H         -4.876746   -0.58518   9.771307 H        1 UNL1     0.0385
     40 H         -3.661857   1.415534   8.827626 H        1 UNL1     0.0789
     41 H         -5.35297   1.933512   5.938118 H        1 UNL1     0.0623
     42 H         -7.494892   3.127171   5.715569 H        1 UNL1     0.0654
     43 H         -8.381626   2.329409   9.841907 H        1 UNL1     0.0654
     44 H         -6.291178   1.113728   10.082944 H        1 UNL1     0.0623
     45 H         -8.995887   4.425397   7.345541 H        1 UNL1     0.2921
     46 H         -5.358382   -3.914574   6.500313 H        1 UNL1     0.2922
     47 H         0.516186   0.373372   2.26083 H        1 UNL1     0.2126
     48 H         1.209498   -1.879795   -0.286476 H        1 UNL1     0.2101
     49 H         -2.027137   0.92206   -0.901534 H        1 UNL1     0.2100
     50 H         -2.662735   -3.352385   -1.138443 H        1 UNL1     0.2102
@<TRIPOS>BOND
     1     1     2    1
     2     1     6    1
     3     2     3    1
     4     3     4    1
     5     3    29    1
     6     3    33    1
     7     4     5    1
     8     5     6    1
     9     5     7    1
    10     5    35    1
    11     7     8    1
    12     8     9   ar
    13     8    13   ar
    14     9    10   ar
    15     9    36    1
    16    10    11   ar
    17    10    26    1
    18    11    12   ar
    19    11    14    1
    20    12    13   ar
    21    12    17    1
    22    13    37    1
    23    14    15    1
    24    14    25    2
    25    15    16    1
    26    15    38    1
    27    15    39    1
    28    16    17    1
    29    16    18    1
    30    16    40    1
    31    18    19   ar
    32    18    23   ar
    33    19    20   ar
    34    19    41    1
    35    20    21   ar
    36    20    42    1
    37    21    22   ar
    38    21    24    1
    39    22    23   ar
    40    22    43    1
    41    23    44    1
    42    24    45    1
    43    26    46    1
    44    27    47    1
    45    28    48    1
    46    29    49    1
    47    30    50    1
    48     1    31    1
    49     1    27    1
    50     2    32    1
    51     2    28    1
    52     4    34    1
    53     4    30    1
