@<TRIPOS>MOLECULE
*****
 50 53 0 0 0
SMALL
GASTEIGER

@<TRIPOS>ATOM
     1 C         0.864423   -1.439072   -1.397373 C.3        1 UNL1     0.1889
     2 C         -0.348461   -0.704987   -0.764938 C.3        1 UNL1     0.1342
     3 C         -1.407766   -1.630918   -0.147694 C.3        1 UNL1     0.1174
     4 C         -1.571696   -2.942637   -0.91947 C.3        1 UNL1     0.1456
     5 C         -0.221564   -3.597921   -1.263144 C.3        1 UNL1     0.2326
     6 O         0.583746   -2.688911   -2.010168 O.3        1 UNL1     -0.3076
     7 O         0.457246   -4.146325   -0.118683 O.3        1 UNL1     -0.4605
     8 C         0.434586   -3.372664   1.027818 C.ar        1 UNL1     0.1310
     9 C         -0.22377   -2.14582   1.164643 C.ar        1 UNL1     0.0226
     10 C         -0.202179   -1.443994   2.37579 C.ar        1 UNL1     0.1343
     11 C         0.459042   -1.964027   3.487633 C.ar        1 UNL1     0.1007
     12 C         1.154518   -3.168416   3.351462 C.ar        1 UNL1     0.1389
     13 C         1.134868   -3.872614   2.132795 C.ar        1 UNL1     0.0229
     14 C         0.443532   -1.30582   4.814538 C.2        1 UNL1     0.1740
     15 C         1.013506   -2.110812   5.94532 C.3        1 UNL1     0.0520
     16 C         2.255649   -2.834194   5.443567 C.3        1 UNL1     0.1322
     17 O         1.927495   -3.717196   4.348263 O.3        1 UNL1     -0.4828
     18 C         3.443315   -1.906384   5.176466 C.ar        1 UNL1     -0.0067
     19 C         3.430944   -1.076162   4.03682 C.ar        1 UNL1     -0.0516
     20 C         4.52139   -0.250735   3.737555 C.ar        1 UNL1     -0.0198
     21 C         5.63069   -0.251906   4.564162 C.ar        1 UNL1     0.1169
     22 C         5.65876   -1.033498   5.71184 C.ar        1 UNL1     -0.0198
     23 C         4.560852   -1.845214   6.021311 C.ar        1 UNL1     -0.0516
     24 O         6.689137   0.536629   4.22021 O.3        1 UNL1     -0.5068
     25 O         -0.068537   -0.208321   5.018907 O.2        1 UNL1     -0.2917
     26 O         -0.863291   -0.252361   2.443067 O.3        1 UNL1     -0.5058
     27 O         1.988879   -1.518892   -0.535969 O.3        1 UNL1     -0.3648
     28 O         -0.999799   0.06716   -1.790731 O.3        1 UNL1     -0.3841
     29 O         -1.153702   -1.835436   1.243621 O.3        1 UNL1     -0.3863
     30 O         -2.287731   -2.683924   -2.146683 O.3        1 UNL1     -0.3829
     31 H         1.207021   -0.816364   -2.231003 H        1 UNL1     0.0937
     32 H         0.0   0.0   0.0 H        1 UNL1     0.0671
     33 H         -2.375202   -1.111681   -0.194384 H        1 UNL1     0.0649
     34 H         -2.17725   -3.645968   -0.337208 H        1 UNL1     0.0683
     35 H         -0.49033   -4.417463   -1.941373 H        1 UNL1     0.1085
     36 H         -0.801993   -1.715494   0.354336 H        1 UNL1     0.0691
     37 H         1.685241   -4.807548   2.052294 H        1 UNL1     0.0691
     38 H         0.244784   -2.821982   6.26599 H        1 UNL1     0.0385
     39 H         1.233994   -1.443537   6.785503 H        1 UNL1     0.0385
     40 H         2.586349   -3.505395   6.24771 H        1 UNL1     0.0789
     41 H         2.575865   -1.063883   3.367238 H        1 UNL1     0.0623
     42 H         4.504746   0.376051   2.849369 H        1 UNL1     0.0654
     43 H         6.5162   -1.03076   6.374184 H        1 UNL1     0.0654
     44 H         4.61258   -2.434892   6.931503 H        1 UNL1     0.0623
     45 H         7.413528   -0.03607   3.920226 H        1 UNL1     0.2921
     46 H         -0.301938   0.404583   2.884335 H        1 UNL1     0.2922
     47 H         2.243298   -0.635478   -0.234787 H        1 UNL1     0.2126
     48 H         -1.62387   -0.534776   -2.240109 H        1 UNL1     0.2101
     49 H         -1.310455   -2.764888   1.474577 H        1 UNL1     0.2100
     50 H         -3.209443   -2.447391   -1.913847 H        1 UNL1     0.2102
@<TRIPOS>BOND
     1     1     2    1
     2     1     6    1
     3     2     3    1
     4     3     4    1
     5     3    29    1
     6     3    33    1
     7     4     5    1
     8     5     6    1
     9     5     7    1
    10     5    35    1
    11     7     8    1
    12     8     9   ar
    13     8    13   ar
    14     9    10   ar
    15     9    36    1
    16    10    11   ar
    17    10    26    1
    18    11    12   ar
    19    11    14    1
    20    12    13   ar
    21    12    17    1
    22    13    37    1
    23    14    15    1
    24    14    25    2
    25    15    16    1
    26    15    38    1
    27    15    39    1
    28    16    17    1
    29    16    18    1
    30    16    40    1
    31    18    19   ar
    32    18    23   ar
    33    19    20   ar
    34    19    41    1
    35    20    21   ar
    36    20    42    1
    37    21    22   ar
    38    21    24    1
    39    22    23   ar
    40    22    43    1
    41    23    44    1
    42    24    45    1
    43    26    46    1
    44    27    47    1
    45    28    48    1
    46    29    49    1
    47    30    50    1
    48     1    31    1
    49     1    27    1
    50     2    32    1
    51     2    28    1
    52     4    34    1
    53     4    30    1
