@<TRIPOS>MOLECULE
*****
 50 53 0 0 0
SMALL
GASTEIGER

@<TRIPOS>ATOM
     1 C         -0.353507   -1.400416   1.638497 C.3        1 UNL1     0.1889
     2 C         -0.443396   -0.993211   0.143156 C.3        1 UNL1     0.1342
     3 C         -1.865755   -0.995449   -0.437665 C.3        1 UNL1     0.1174
     4 C         -2.745744   -2.100631   0.151664 C.3        1 UNL1     0.1456
     5 C         -2.644004   -2.181057   1.685791 C.3        1 UNL1     0.2326
     6 O         -1.286196   -2.378958   2.073169 O.3        1 UNL1     -0.3076
     7 O         -3.269385   -1.074294   2.360546 O.3        1 UNL1     -0.4605
     8 C         -3.825011   -1.353314   3.596247 C.ar        1 UNL1     0.1310
     9 C         -4.632348   -2.457199   3.891114 C.ar        1 UNL1     0.0226
     10 C         -5.134895   -2.662192   5.181589 C.ar        1 UNL1     0.1343
     11 C         -4.822391   -1.780169   6.215136 C.ar        1 UNL1     0.1007
     12 C         -4.050907   -0.652073   5.923601 C.ar        1 UNL1     0.1389
     13 C         -3.547903   -0.444762   4.625355 C.ar        1 UNL1     0.0229
     14 C         -5.256902   -1.993686   7.615052 C.2        1 UNL1     0.1740
     15 C         -4.647528   -1.073399   8.631559 C.3        1 UNL1     0.0520
     16 C         -4.581543   0.326234   8.03605 C.3        1 UNL1     0.1322
     17 O         -3.773024   0.336536   6.838861 O.3        1 UNL1     -0.4828
     18 C         -5.949299   0.996103   7.883595 C.ar        1 UNL1     -0.0067
     19 C         -6.283449   1.618488   6.663269 C.ar        1 UNL1     -0.0516
     20 C         -7.506658   2.281088   6.506158 C.ar        1 UNL1     -0.0198
     21 C         -8.399155   2.334567   7.561817 C.ar        1 UNL1     0.1169
     22 C         -8.112832   1.702595   8.764925 C.ar        1 UNL1     -0.0198
     23 C         -6.897571   1.024144   8.916256 C.ar        1 UNL1     -0.0516
     24 O         -9.564226   3.021165   7.384068 O.3        1 UNL1     -0.5068
     25 O         -6.002462   -2.906808   7.959773 O.2        1 UNL1     -0.2917
     26 O         -5.917302   -3.757819   5.403007 O.3        1 UNL1     -0.5058
     27 O         -0.305203   -0.293065   2.524063 O.3        1 UNL1     -0.3648
     28 O         0.336745   -1.923484   -0.630587 O.3        1 UNL1     -0.3841
     29 O         -2.458993   0.300256   -0.331127 O.3        1 UNL1     -0.3863
     30 O         -2.347869   -3.371527   -0.407093 O.3        1 UNL1     -0.3829
     31 H         0.615593   -1.893837   1.770636 H        1 UNL1     0.0937
     32 H         0.0   0.0   0.0 H        1 UNL1     0.0671
     33 H         -1.787357   -1.192683   -1.515938 H        1 UNL1     0.0649
     34 H         -3.791096   -1.938297   -0.133446 H        1 UNL1     0.0683
     35 H         -3.185265   -3.101301   1.938905 H        1 UNL1     0.1085
     36 H         -4.865337   -3.208815   3.14485 H        1 UNL1     0.0691
     37 H         -2.950619   0.441917   4.423996 H        1 UNL1     0.0691
     38 H         -3.646109   -1.451868   8.862745 H        1 UNL1     0.0385
     39 H         -5.245437   -1.105355   9.548762 H        1 UNL1     0.0385
     40 H         -4.027816   0.954614   8.746715 H        1 UNL1     0.0789
     41 H         -5.596137   1.598471   5.822524 H        1 UNL1     0.0623
     42 H         -7.747675   2.767352   5.564102 H        1 UNL1     0.0654
     43 H         -8.811021   1.725422   9.59313 H        1 UNL1     0.0654
     44 H         -6.711335   0.532675   9.866318 H        1 UNL1     0.0623
     45 H         -9.348535   3.952538   7.214546 H        1 UNL1     0.2921
     46 H         -5.532438   -4.291417   6.116144 H        1 UNL1     0.2922
     47 H         0.419319   0.299617   2.279819 H        1 UNL1     0.2126
     48 H         1.264532   -1.815365   -0.345534 H        1 UNL1     0.2101
     49 H         -2.020017   0.915282   -0.940091 H        1 UNL1     0.2100
     50 H         -2.554449   -3.357838   -1.364616 H        1 UNL1     0.2102
@<TRIPOS>BOND
     1     1     2    1
     2     1     6    1
     3     2     3    1
     4     3     4    1
     5     3    29    1
     6     3    33    1
     7     4     5    1
     8     5     6    1
     9     5     7    1
    10     5    35    1
    11     7     8    1
    12     8     9   ar
    13     8    13   ar
    14     9    10   ar
    15     9    36    1
    16    10    11   ar
    17    10    26    1
    18    11    12   ar
    19    11    14    1
    20    12    13   ar
    21    12    17    1
    22    13    37    1
    23    14    15    1
    24    14    25    2
    25    15    16    1
    26    15    38    1
    27    15    39    1
    28    16    17    1
    29    16    18    1
    30    16    40    1
    31    18    19   ar
    32    18    23   ar
    33    19    20   ar
    34    19    41    1
    35    20    21   ar
    36    20    42    1
    37    21    22   ar
    38    21    24    1
    39    22    23   ar
    40    22    43    1
    41    23    44    1
    42    24    45    1
    43    26    46    1
    44    27    47    1
    45    28    48    1
    46    29    49    1
    47    30    50    1
    48     1    31    1
    49     1    27    1
    50     2    32    1
    51     2    28    1
    52     4    34    1
    53     4    30    1
