@<TRIPOS>MOLECULE
*****
 50 53 0 0 0
SMALL
GASTEIGER

@<TRIPOS>ATOM
     1 C         -0.361095   -1.448258   -1.594667 C.3        1 UNL1     0.1889
     2 C         -0.616848   -0.081933   -0.903519 C.3        1 UNL1     0.1342
     3 C         -2.084108   0.185317   -0.534477 C.3        1 UNL1     0.1174
     4 C         -3.067846   -0.401714   -1.549746 C.3        1 UNL1     0.1456
     5 C         -2.723123   -1.851886   -1.935143 C.3        1 UNL1     0.2326
     6 O         -1.394651   -1.91559   -2.448926 O.3        1 UNL1     -0.3076
     7 O         -2.967594   -2.799105   -0.879524 O.3        1 UNL1     -0.4605
     8 C         -4.272502   -2.879747   -0.427594 C.ar        1 UNL1     0.1310
     9 C         -4.712025   -3.665101   0.643545 C.ar        1 UNL1     0.0226
     10 C         -6.055566   -3.665842   1.036989 C.ar        1 UNL1     0.1343
     11 C         -6.988699   -2.862245   0.383281 C.ar        1 UNL1     0.1007
     12 C         -6.569688   -2.104934   -0.713849 C.ar        1 UNL1     0.1389
     13 C         -5.219223   -2.106383   -1.110928 C.ar        1 UNL1     0.0229
     14 C         -8.403461   -2.760587   0.810209 C.2        1 UNL1     0.1740
     15 C         -9.208462   -1.686471   0.13954 C.3        1 UNL1     0.0520
     16 C         -8.82998   -1.650272   -1.334705 C.3        1 UNL1     0.1322
     17 O         -7.423509   -1.36243   -1.496118 O.3        1 UNL1     -0.4828
     18 C         -9.324516   -2.862387   -2.12776 C.ar        1 UNL1     -0.0067
     19 C         -10.48731   -2.74621   -2.916827 C.ar        1 UNL1     -0.0516
     20 C         -10.993373   -3.847922   -3.616895 C.ar        1 UNL1     -0.0198
     21 C         -10.351419   -5.070312   -3.530386 C.ar        1 UNL1     0.1169
     22 C         -9.185529   -5.207822   -2.788342 C.ar        1 UNL1     -0.0198
     23 C         -8.6689   -4.101721   -2.103002 C.ar        1 UNL1     -0.0516
     24 O         -10.89476   -6.129908   -4.195546 O.3        1 UNL1     -0.5068
     25 O         -8.889413   -3.443169   1.708217 O.2        1 UNL1     -0.2917
     26 O         -6.419618   -4.455004   2.088785 O.3        1 UNL1     -0.5058
     27 O         0.078201   -2.459829   -0.702182 O.3        1 UNL1     -0.3648
     28 O         -0.202446   0.966693   -1.798707 O.3        1 UNL1     -0.3841
     29 O         -2.354637   -0.234082   0.804571 O.3        1 UNL1     -0.3863
     30 O         -3.057589   0.410735   -2.743693 O.3        1 UNL1     -0.3829
     31 H         0.485781   -1.301575   -2.273905 H        1 UNL1     0.0937
     32 H         0.0   0.0   0.0 H        1 UNL1     0.0671
     33 H         -2.237418   1.273533   -0.535987 H        1 UNL1     0.0649
     34 H         -4.086187   -0.36685   -1.147045 H        1 UNL1     0.0683
     35 H         -3.39922   -2.071301   -2.770983 H        1 UNL1     0.1085
     36 H         -4.025732   -4.268547   1.227477 H        1 UNL1     0.0691
     37 H         -4.918722   -1.508948   -1.968986 H        1 UNL1     0.0691
     38 H         -8.970016   -0.737671   0.63193 H        1 UNL1     0.0385
     39 H         -10.274223   -1.890773   0.288508 H        1 UNL1     0.0385
     40 H         -9.340079   -0.784717   -1.778704 H        1 UNL1     0.0789
     41 H         -11.014674   -1.799838   -2.99375 H        1 UNL1     0.0623
     42 H         -11.897517   -3.748575   -4.212433 H        1 UNL1     0.0654
     43 H         -8.666407   -6.15678   -2.72587 H        1 UNL1     0.0654
     44 H         -7.750345   -4.242594   -1.541524 H        1 UNL1     0.0623
     45 H         -10.173401   -6.649775   -4.585543 H        1 UNL1     0.2921
     46 H         -7.333133   -4.757691   1.965159 H        1 UNL1     0.2922
     47 H         -0.600209   -2.635664   -0.035323 H        1 UNL1     0.2126
     48 H         -0.308091   1.807223   -1.312825 H        1 UNL1     0.2101
     49 H         -1.554329   -0.616002   1.198827 H        1 UNL1     0.2100
     50 H         -3.937244   0.83355   -2.828236 H        1 UNL1     0.2102
@<TRIPOS>BOND
     1     1     2    1
     2     1     6    1
     3     2     3    1
     4     3     4    1
     5     3    29    1
     6     3    33    1
     7     4     5    1
     8     5     6    1
     9     5     7    1
    10     5    35    1
    11     7     8    1
    12     8     9   ar
    13     8    13   ar
    14     9    10   ar
    15     9    36    1
    16    10    11   ar
    17    10    26    1
    18    11    12   ar
    19    11    14    1
    20    12    13   ar
    21    12    17    1
    22    13    37    1
    23    14    15    1
    24    14    25    2
    25    15    16    1
    26    15    38    1
    27    15    39    1
    28    16    17    1
    29    16    18    1
    30    16    40    1
    31    18    19   ar
    32    18    23   ar
    33    19    20   ar
    34    19    41    1
    35    20    21   ar
    36    20    42    1
    37    21    22   ar
    38    21    24    1
    39    22    23   ar
    40    22    43    1
    41    23    44    1
    42    24    45    1
    43    26    46    1
    44    27    47    1
    45    28    48    1
    46    29    49    1
    47    30    50    1
    48     1    31    1
    49     1    27    1
    50     2    32    1
    51     2    28    1
    52     4    34    1
    53     4    30    1
