@<TRIPOS>MOLECULE
*****
 50 53 0 0 0
SMALL
GASTEIGER

@<TRIPOS>ATOM
     1 C         0.667376   0.339563   -2.051855 C.3        1 UNL1     0.1889
     2 C         -0.306821   -0.281525   -1.014971 C.3        1 UNL1     0.1342
     3 C         -0.437163   -1.810369   -1.093144 C.3        1 UNL1     0.1174
     4 C         -0.336811   -2.342133   -2.525022 C.3        1 UNL1     0.1456
     5 C         0.840224   -1.725361   -3.302546 C.3        1 UNL1     0.2326
     6 O         0.722472   -0.30451   -3.316185 O.3        1 UNL1     -0.3076
     7 O         2.127982   -2.182122   -2.850474 O.3        1 UNL1     -0.4605
     8 C         2.115409   -3.140241   -1.852788 C.ar        1 UNL1     0.1310
     9 C         3.0539   -3.247931   -0.82083 C.ar        1 UNL1     0.0226
     10 C         2.945133   -4.245707   0.155139 C.ar        1 UNL1     0.1343
     11 C         1.880865   -5.146165   0.136385 C.ar        1 UNL1     0.1007
     12 C         0.960188   -5.074277   -0.912409 C.ar        1 UNL1     0.1389
     13 C         1.071248   -4.072581   -1.89511 C.ar        1 UNL1     0.0229
     14 C         1.670849   -6.166754   1.189212 C.2        1 UNL1     0.1740
     15 C         0.361888   -6.898165   1.13258 C.3        1 UNL1     0.0520
     16 C         0.040107   -7.197842   -0.325024 C.3        1 UNL1     0.1322
     17 O         -0.063472   -5.976063   -1.088959 O.3        1 UNL1     -0.4828
     18 C         0.945828   -8.261807   -0.94982 C.ar        1 UNL1     -0.0067
     19 C         0.607645   -8.809167   -2.204509 C.ar        1 UNL1     -0.0516
     20 C         1.388192   -9.817614   -2.782213 C.ar        1 UNL1     -0.0198
     21 C         2.502694   -10.291348   -2.113416 C.ar        1 UNL1     0.1169
     22 C         2.880244   -9.748897   -0.891925 C.ar        1 UNL1     -0.0198
     23 C         2.110304   -8.727582   -0.32257 C.ar        1 UNL1     -0.0516
     24 O         3.217068   -11.300397   -2.689516 O.3        1 UNL1     -0.5068
     25 O         2.463278   -6.36494   2.106416 O.2        1 UNL1     -0.2917
     26 O         3.894075   -4.297082   1.134145 O.3        1 UNL1     -0.5058
     27 O         1.964471   0.58541   -1.532345 O.3        1 UNL1     -0.3648
     28 O         -1.617982   0.271871   -1.232497 O.3        1 UNL1     -0.3841
     29 O         0.482705   -2.443919   -0.201746 O.3        1 UNL1     -0.3863
     30 O         -1.56329   -2.045623   -3.227531 O.3        1 UNL1     -0.3829
     31 H         0.278487   1.335912   -2.288779 H        1 UNL1     0.0937
     32 H         0.0   0.0   0.0 H        1 UNL1     0.0671
     33 H         -1.43579   -2.081162   -0.722826 H        1 UNL1     0.0649
     34 H         -0.230191   -3.432488   -2.512419 H        1 UNL1     0.0683
     35 H         0.685026   -2.068177   -4.333211 H        1 UNL1     0.1085
     36 H         3.872621   -2.544065   -0.718901 H        1 UNL1     0.0691
     37 H         0.342173   -4.038765   -2.701831 H        1 UNL1     0.0691
     38 H         -0.39927   -6.250033   1.579895 H        1 UNL1     0.0385
     39 H         0.433318   -7.809132   1.73658 H        1 UNL1     0.0385
     40 H         -0.971454   -7.625087   -0.351982 H        1 UNL1     0.0789
     41 H         -0.26745   -8.460816   -2.745352 H        1 UNL1     0.0623
     42 H         1.110286   -10.239941   -3.74472 H        1 UNL1     0.0654
     43 H         3.75963   -10.101999   -0.366653 H        1 UNL1     0.0654
     44 H         2.440563   -8.319597   0.627863 H        1 UNL1     0.0623
     45 H         4.161645   -11.087844   -2.616632 H        1 UNL1     0.2921
     46 H         3.596412   -4.889638   1.842443 H        1 UNL1     0.2922
     47 H         1.958207   0.512237   -0.567738 H        1 UNL1     0.2126
     48 H         -1.499356   1.233955   -1.351054 H        1 UNL1     0.2101
     49 H         0.114312   -2.460156   0.695927 H        1 UNL1     0.2100
     50 H         -1.331166   -1.787115   -4.143503 H        1 UNL1     0.2102
@<TRIPOS>BOND
     1     1     2    1
     2     1     6    1
     3     2     3    1
     4     3     4    1
     5     3    29    1
     6     3    33    1
     7     4     5    1
     8     5     6    1
     9     5     7    1
    10     5    35    1
    11     7     8    1
    12     8     9   ar
    13     8    13   ar
    14     9    10   ar
    15     9    36    1
    16    10    11   ar
    17    10    26    1
    18    11    12   ar
    19    11    14    1
    20    12    13   ar
    21    12    17    1
    22    13    37    1
    23    14    15    1
    24    14    25    2
    25    15    16    1
    26    15    38    1
    27    15    39    1
    28    16    17    1
    29    16    18    1
    30    16    40    1
    31    18    19   ar
    32    18    23   ar
    33    19    20   ar
    34    19    41    1
    35    20    21   ar
    36    20    42    1
    37    21    22   ar
    38    21    24    1
    39    22    23   ar
    40    22    43    1
    41    23    44    1
    42    24    45    1
    43    26    46    1
    44    27    47    1
    45    28    48    1
    46    29    49    1
    47    30    50    1
    48     1    31    1
    49     1    27    1
    50     2    32    1
    51     2    28    1
    52     4    34    1
    53     4    30    1
