@<TRIPOS>MOLECULE
*****
 50 53 0 0 0
SMALL
GASTEIGER

@<TRIPOS>ATOM
     1 C         -0.338516   -1.332966   1.696883 C.3        1 UNL1     0.1889
     2 C         -0.465558   -0.974706   0.191742 C.3        1 UNL1     0.1342
     3 C         -1.905493   -0.956279   -0.343713 C.3        1 UNL1     0.1174
     4 C         -2.795881   -2.015163   0.311337 C.3        1 UNL1     0.1456
     5 C         -2.646797   -2.04598   1.843391 C.3        1 UNL1     0.2326
     6 O         -1.283094   -2.26912   2.194661 O.3        1 UNL1     -0.3076
     7 O         -3.219484   -0.899441   2.498219 O.3        1 UNL1     -0.4605
     8 C         -3.732083   -1.117669   3.764373 C.ar        1 UNL1     0.1310
     9 C         -4.552226   -2.189507   4.132923 C.ar        1 UNL1     0.0226
     10 C         -5.007939   -2.333   5.44884 C.ar        1 UNL1     0.1343
     11 C         -4.634691   -1.420255   6.434447 C.ar        1 UNL1     0.1007
     12 C         -3.849675   -0.323227   6.069667 C.ar        1 UNL1     0.1389
     13 C         -3.393759   -0.177725   4.745884 C.ar        1 UNL1     0.0229
     14 C         -5.018308   -1.569767   7.857344 C.2        1 UNL1     0.1740
     15 C         -4.348296   -0.626696   8.812985 C.3        1 UNL1     0.0520
     16 C         -4.273833   0.747279   8.161366 C.3        1 UNL1     0.1322
     17 O         -3.513243   0.692348   6.934356 O.3        1 UNL1     -0.4828
     18 C         -5.630831   1.444084   8.035894 C.ar        1 UNL1     -0.0067
     19 C         -6.004901   2.014616   6.801885 C.ar        1 UNL1     -0.0516
     20 C         -7.217922   2.700196   6.665781 C.ar        1 UNL1     -0.0198
     21 C         -8.060333   2.828207   7.755636 C.ar        1 UNL1     0.1169
     22 C         -7.735032   2.248499   8.975044 C.ar        1 UNL1     -0.0198
     23 C         -6.530585   1.547017   9.106521 C.ar        1 UNL1     -0.0516
     24 O         -9.215655   3.535235   7.595187 O.3        1 UNL1     -0.5068
     25 O         -5.770396   -2.450653   8.265865 O.2        1 UNL1     -0.2917
     26 O         -5.805893   -3.399988   5.742766 O.3        1 UNL1     -0.5058
     27 O         -0.231286   -0.197824   2.541123 O.3        1 UNL1     -0.3648
     28 O         0.263379   -1.95272   -0.573011 O.3        1 UNL1     -0.3841
     29 O         -2.459276   0.358681   -0.264107 O.3        1 UNL1     -0.3863
     30 O         -2.451237   -3.315228   -0.214725 O.3        1 UNL1     -0.3829
     31 H         0.620479   -1.848985   1.81576 H        1 UNL1     0.0937
     32 H         0.0   0.0   0.0 H        1 UNL1     0.0671
     33 H         -1.867453   -1.192401   -1.416336 H        1 UNL1     0.0649
     34 H         -3.845074   -1.832959   0.053662 H        1 UNL1     0.0683
     35 H         -3.204576   -2.941246   2.145482 H        1 UNL1     0.1085
     36 H         -4.831698   -2.96301   3.426021 H        1 UNL1     0.0691
     37 H         -2.784733   0.685811   4.487264 H        1 UNL1     0.0691
     38 H         -3.34746   -1.020459   9.019879 H        1 UNL1     0.0385
     39 H         -4.910059   -0.609176   9.753141 H        1 UNL1     0.0385
     40 H         -3.67819   1.388484   8.825132 H        1 UNL1     0.0789
     41 H         -5.356913   1.935814   5.933811 H        1 UNL1     0.0623
     42 H         -7.489641   3.145983   5.712128 H        1 UNL1     0.0654
     43 H         -8.394382   2.329777   9.830943 H        1 UNL1     0.0654
     44 H         -6.313338   1.097841   10.070828 H        1 UNL1     0.0623
     45 H         -8.986276   4.445033   7.34545 H        1 UNL1     0.2921
     46 H         -5.405475   -3.915356   6.46073 H        1 UNL1     0.2922
     47 H         0.511191   0.356819   2.263708 H        1 UNL1     0.2126
     48 H         1.198827   -1.878792   -0.302449 H        1 UNL1     0.2101
     49 H         -2.017835   0.941844   -0.90195 H        1 UNL1     0.2100
     50 H         -2.688237   -3.328392   -1.165183 H        1 UNL1     0.2102
@<TRIPOS>BOND
     1     1     2    1
     2     1     6    1
     3     2     3    1
     4     3     4    1
     5     3    29    1
     6     3    33    1
     7     4     5    1
     8     5     6    1
     9     5     7    1
    10     5    35    1
    11     7     8    1
    12     8     9   ar
    13     8    13   ar
    14     9    10   ar
    15     9    36    1
    16    10    11   ar
    17    10    26    1
    18    11    12   ar
    19    11    14    1
    20    12    13   ar
    21    12    17    1
    22    13    37    1
    23    14    15    1
    24    14    25    2
    25    15    16    1
    26    15    38    1
    27    15    39    1
    28    16    17    1
    29    16    18    1
    30    16    40    1
    31    18    19   ar
    32    18    23   ar
    33    19    20   ar
    34    19    41    1
    35    20    21   ar
    36    20    42    1
    37    21    22   ar
    38    21    24    1
    39    22    23   ar
    40    22    43    1
    41    23    44    1
    42    24    45    1
    43    26    46    1
    44    27    47    1
    45    28    48    1
    46    29    49    1
    47    30    50    1
    48     1    31    1
    49     1    27    1
    50     2    32    1
    51     2    28    1
    52     4    34    1
    53     4    30    1
