@<TRIPOS>MOLECULE
*****
 50 53 0 0 0
SMALL
GASTEIGER

@<TRIPOS>ATOM
     1 C         -0.92476   1.737755   -0.946484 C.3        1 UNL1     0.1889
     2 C         -0.119927   1.071664   0.201779 C.3        1 UNL1     0.1342
     3 C         -0.728709   1.253125   1.600679 C.3        1 UNL1     0.1174
     4 C         -1.414531   2.610075   1.778026 C.3        1 UNL1     0.1456
     5 C         -2.329833   2.968153   0.592966 C.3        1 UNL1     0.2326
     6 O         -1.581708   2.953762   -0.620694 O.3        1 UNL1     -0.3076
     7 O         -3.525345   2.169317   0.530258 O.3        1 UNL1     -0.4605
     8 C         -4.306325   2.156315   1.671937 C.ar        1 UNL1     0.1310
     9 C         -4.964326   1.036046   2.190908 C.ar        1 UNL1     0.0226
     10 C         -5.720074   1.12063   3.366321 C.ar        1 UNL1     0.1343
     11 C         -5.816717   2.323317   4.064922 C.ar        1 UNL1     0.1007
     12 C         -5.197851   3.458406   3.534485 C.ar        1 UNL1     0.1389
     13 C         -4.440192   3.373701   2.35118 C.ar        1 UNL1     0.0229
     14 C         -6.532221   2.449564   5.355762 C.2        1 UNL1     0.1740
     15 C         -6.347291   3.752953   6.07585 C.3        1 UNL1     0.0520
     16 C         -6.375629   4.878082   5.050551 C.3        1 UNL1     0.1322
     17 O         -5.317074   4.715125   4.081028 O.3        1 UNL1     -0.4828
     18 C         -7.759143   5.124164   4.443873 C.ar        1 UNL1     -0.0067
     19 C         -7.962534   6.247382   3.616088 C.ar        1 UNL1     -0.0516
     20 C         -9.226588   6.527855   3.083674 C.ar        1 UNL1     -0.0198
     21 C         -10.294531   5.698795   3.376902 C.ar        1 UNL1     0.1169
     22 C         -10.11842   4.566558   4.161672 C.ar        1 UNL1     -0.0198
     23 C         -8.850489   4.275631   4.679136 C.ar        1 UNL1     -0.0516
     24 O         -11.518714   6.024744   2.871397 O.3        1 UNL1     -0.5068
     25 O         -7.175031   1.535114   5.864744 O.2        1 UNL1     -0.2917
     26 O         -6.338003   -0.008472   3.818954 O.3        1 UNL1     -0.5058
     27 O         -1.789505   0.840769   -1.625026 O.3        1 UNL1     -0.3648
     28 O         1.198234   1.649906   0.229938 O.3        1 UNL1     -0.3841
     29 O         -1.581933   0.154706   1.92873 O.3        1 UNL1     -0.3863
     30 O         -0.407092   3.636028   1.912847 O.3        1 UNL1     -0.3829
     31 H         -0.195395   2.036611   -1.707268 H        1 UNL1     0.0937
     32 H         0.0   -0.0   0.0 H        1 UNL1     0.0671
     33 H         0.091502   1.213717   2.331035 H        1 UNL1     0.0649
     34 H         -2.001978   2.614178   2.702844 H        1 UNL1     0.0683
     35 H         -2.611125   4.011732   0.781898 H        1 UNL1     0.1085
     36 H         -4.882366   0.060067   1.725218 H        1 UNL1     0.0691
     37 H         -3.969132   4.272176   1.958323 H        1 UNL1     0.0691
     38 H         -5.381751   3.71249   6.591236 H        1 UNL1     0.0385
     39 H         -7.133674   3.860725   6.830678 H        1 UNL1     0.0385
     40 H         -6.121712   5.805835   5.580947 H        1 UNL1     0.0789
     41 H         -7.142406   6.918627   3.378453 H        1 UNL1     0.0623
     42 H         -9.373267   7.403651   2.456395 H        1 UNL1     0.0654
     43 H         -10.944634   3.902251   4.385226 H        1 UNL1     0.0654
     44 H         -8.746886   3.377024   5.27965 H        1 UNL1     0.0623
     45 H         -11.733184   6.930596   3.147351 H        1 UNL1     0.2921
     46 H         -7.288937   0.047037   3.634415 H        1 UNL1     0.2922
     47 H         -1.311239   0.036944   -1.871979 H        1 UNL1     0.2126
     48 H         1.377722   1.980987   -0.671118 H        1 UNL1     0.2101
     49 H         -2.429179   0.484772   2.267883 H        1 UNL1     0.2100
     50 H         -0.651517   4.200241   2.675496 H        1 UNL1     0.2102
@<TRIPOS>BOND
     1     1     2    1
     2     1     6    1
     3     2     3    1
     4     3     4    1
     5     3    29    1
     6     3    33    1
     7     4     5    1
     8     5     6    1
     9     5     7    1
    10     5    35    1
    11     7     8    1
    12     8     9   ar
    13     8    13   ar
    14     9    10   ar
    15     9    36    1
    16    10    11   ar
    17    10    26    1
    18    11    12   ar
    19    11    14    1
    20    12    13   ar
    21    12    17    1
    22    13    37    1
    23    14    15    1
    24    14    25    2
    25    15    16    1
    26    15    38    1
    27    15    39    1
    28    16    17    1
    29    16    18    1
    30    16    40    1
    31    18    19   ar
    32    18    23   ar
    33    19    20   ar
    34    19    41    1
    35    20    21   ar
    36    20    42    1
    37    21    22   ar
    38    21    24    1
    39    22    23   ar
    40    22    43    1
    41    23    44    1
    42    24    45    1
    43    26    46    1
    44    27    47    1
    45    28    48    1
    46    29    49    1
    47    30    50    1
    48     1    31    1
    49     1    27    1
    50     2    32    1
    51     2    28    1
    52     4    34    1
    53     4    30    1
