@<TRIPOS>MOLECULE
*****
 50 53 0 0 0
SMALL
GASTEIGER

@<TRIPOS>ATOM
     1 C         -0.325711   -1.360446   1.67747 C.3        1 UNL1     0.1889
     2 C         -0.465057   -0.97726   0.179574 C.3        1 UNL1     0.1342
     3 C         -1.909445   -0.948518   -0.343284 C.3        1 UNL1     0.1174
     4 C         -2.795497   -2.017156   0.30173 C.3        1 UNL1     0.1456
     5 C         -2.633501   -2.07341   1.831748 C.3        1 UNL1     0.2326
     6 O         -1.267138   -2.303718   2.167722 O.3        1 UNL1     -0.3076
     7 O         -3.199293   -0.937249   2.510231 O.3        1 UNL1     -0.4605
     8 C         -3.711649   -1.178194   3.772358 C.ar        1 UNL1     0.1310
     9 C         -4.537127   -2.252837   4.120247 C.ar        1 UNL1     0.0226
     10 C         -4.992142   -2.42037   5.433562 C.ar        1 UNL1     0.1343
     11 C         -4.612901   -1.529674   6.436895 C.ar        1 UNL1     0.1007
     12 C         -3.82241   -0.429734   6.093324 C.ar        1 UNL1     0.1389
     13 C         -3.367191   -0.260036   4.772185 C.ar        1 UNL1     0.0229
     14 C         -4.995734   -1.705766   7.85696 C.2        1 UNL1     0.1740
     15 C         -4.319604   -0.785733   8.83058 C.3        1 UNL1     0.0520
     16 C         -4.238487   0.600671   8.206673 C.3        1 UNL1     0.1322
     17 O         -3.479567   0.566403   6.977878 O.3        1 UNL1     -0.4828
     18 C         -5.591861   1.30711   8.096913 C.ar        1 UNL1     -0.0067
     19 C         -5.957856   1.917285   6.879561 C.ar        1 UNL1     -0.0516
     20 C         -7.167257   2.612187   6.759459 C.ar        1 UNL1     -0.0198
     21 C         -8.01403   2.710137   7.84905 C.ar        1 UNL1     0.1169
     22 C         -7.696777   2.091462   9.05131 C.ar        1 UNL1     -0.0198
     23 C         -6.495998   1.380847   9.166256 C.ar        1 UNL1     -0.0516
     24 O         -9.165529   3.426972   7.705533 O.3        1 UNL1     -0.5068
     25 O         -5.752089   -2.590667   8.248575 O.2        1 UNL1     -0.2917
     26 O         -5.795489   -3.48878   5.706915 O.3        1 UNL1     -0.5058
     27 O         -0.210023   -0.239504   2.539382 O.3        1 UNL1     -0.3648
     28 O         0.256246   -1.943265   -0.607358 O.3        1 UNL1     -0.3841
     29 O         -2.461002   0.365516   -0.237307 O.3        1 UNL1     -0.3863
     30 O         -2.45683   -3.308714   -0.248609 O.3        1 UNL1     -0.3829
     31 H         0.633653   -1.879341   1.779688 H        1 UNL1     0.0937
     32 H         0.0   0.0   0.0 H        1 UNL1     0.0671
     33 H         -1.880751   -1.166942   -1.41994 H        1 UNL1     0.0649
     34 H         -3.846618   -1.829646   0.055995 H        1 UNL1     0.0683
     35 H         -3.18975   -2.972968   2.123745 H        1 UNL1     0.1085
     36 H         -4.821536   -3.010437   3.398254 H        1 UNL1     0.0691
     37 H         -2.753823   0.605266   4.530265 H        1 UNL1     0.0691
     38 H         -3.320669   -1.188931   9.028282 H        1 UNL1     0.0385
     39 H         -4.88022   -0.784152   9.771583 H        1 UNL1     0.0385
     40 H         -3.638671   1.225181   8.88249 H        1 UNL1     0.0789
     41 H         -5.306293   1.862519   6.012314 H        1 UNL1     0.0623
     42 H         -7.432715   3.088531   5.818905 H        1 UNL1     0.0654
     43 H         -8.359635   2.14913   9.906414 H        1 UNL1     0.0654
     44 H         -6.285074   0.901029   10.117114 H        1 UNL1     0.0623
     45 H         -8.93072   4.348566   7.509964 H        1 UNL1     0.2921
     46 H         -5.397047   -4.020641   6.413866 H        1 UNL1     0.2922
     47 H         0.520372   0.327525   2.25502 H        1 UNL1     0.2126
     48 H         1.196081   -1.864914   -0.353776 H        1 UNL1     0.2101
     49 H         -2.030065   0.956716   -0.874935 H        1 UNL1     0.2100
     50 H         -2.701873   -3.305944   -1.197113 H        1 UNL1     0.2102
@<TRIPOS>BOND
     1     1     2    1
     2     1     6    1
     3     2     3    1
     4     3     4    1
     5     3    29    1
     6     3    33    1
     7     4     5    1
     8     5     6    1
     9     5     7    1
    10     5    35    1
    11     7     8    1
    12     8     9   ar
    13     8    13   ar
    14     9    10   ar
    15     9    36    1
    16    10    11   ar
    17    10    26    1
    18    11    12   ar
    19    11    14    1
    20    12    13   ar
    21    12    17    1
    22    13    37    1
    23    14    15    1
    24    14    25    2
    25    15    16    1
    26    15    38    1
    27    15    39    1
    28    16    17    1
    29    16    18    1
    30    16    40    1
    31    18    19   ar
    32    18    23   ar
    33    19    20   ar
    34    19    41    1
    35    20    21   ar
    36    20    42    1
    37    21    22   ar
    38    21    24    1
    39    22    23   ar
    40    22    43    1
    41    23    44    1
    42    24    45    1
    43    26    46    1
    44    27    47    1
    45    28    48    1
    46    29    49    1
    47    30    50    1
    48     1    31    1
    49     1    27    1
    50     2    32    1
    51     2    28    1
    52     4    34    1
    53     4    30    1
