@<TRIPOS>MOLECULE
*****
 50 53 0 0 0
SMALL
GASTEIGER

@<TRIPOS>ATOM
     1 C         0.397215   -1.982623   0.825972 C.3        1 UNL1     0.1889
     2 C         -0.142316   -1.048357   -0.290268 C.3        1 UNL1     0.1342
     3 C         -1.617915   -1.271314   -0.655457 C.3        1 UNL1     0.1174
     4 C         -2.037396   -2.740372   -0.560484 C.3        1 UNL1     0.1456
     5 C         -1.55663   -3.408532   0.740589 C.3        1 UNL1     0.2326
     6 O         -0.139363   -3.297133   0.849273 O.3        1 UNL1     -0.3076
     7 O         -2.252084   -2.946829   1.912978 O.3        1 UNL1     -0.4605
     8 C         -1.771162   -3.409527   3.124652 C.ar        1 UNL1     0.1310
     9 C         -2.287476   -3.076994   4.381689 C.ar        1 UNL1     0.0226
     10 C         -1.740228   -3.612641   5.553655 C.ar        1 UNL1     0.1343
     11 C         -0.677544   -4.513291   5.495571 C.ar        1 UNL1     0.1007
     12 C         -0.126985   -4.821164   4.248621 C.ar        1 UNL1     0.1389
     13 C         -0.67572   -4.280388   3.070537 C.ar        1 UNL1     0.0229
     14 C         -0.115317   -5.173965   6.696222 C.2        1 UNL1     0.1740
     15 C         0.868002   -6.275791   6.430494 C.3        1 UNL1     0.0520
     16 C         1.765687   -5.852353   5.276016 C.3        1 UNL1     0.1322
     17 O         0.987325   -5.610607   4.083212 O.3        1 UNL1     -0.4828
     18 C         2.742284   -4.729671   5.63458 C.ar        1 UNL1     -0.0067
     19 C         3.815668   -4.442017   4.766643 C.ar        1 UNL1     -0.0516
     20 C         4.753982   -3.45383   5.087604 C.ar        1 UNL1     -0.0198
     21 C         4.634401   -2.752943   6.274316 C.ar        1 UNL1     0.1169
     22 C         3.569459   -2.990298   7.133618 C.ar        1 UNL1     -0.0198
     23 C         2.620662   -3.965633   6.80413 C.ar        1 UNL1     -0.0516
     24 O         5.588362   -1.824334   6.571038 O.3        1 UNL1     -0.5068
     25 O         -0.472748   -4.912236   7.841747 O.2        1 UNL1     -0.2917
     26 O         -2.289252   -3.247112   6.748035 O.3        1 UNL1     -0.5058
     27 O         0.385456   -1.389211   2.11458 O.3        1 UNL1     -0.3648
     28 O         0.632349   -1.268842   -1.483577 O.3        1 UNL1     -0.3841
     29 O         -2.464317   -0.404   0.101843 O.3        1 UNL1     -0.3863
     30 O         -1.48851   -3.46334   -1.683752 O.3        1 UNL1     -0.3829
     31 H         1.45966   -2.143482   0.612865 H        1 UNL1     0.0937
     32 H         0.0   0.0   0.0 H        1 UNL1     0.0671
     33 H         -1.753371   -0.96924   -1.703371 H        1 UNL1     0.0649
     34 H         -3.127813   -2.823056   -0.627978 H        1 UNL1     0.0683
     35 H         -1.782458   -4.471786   0.591021 H        1 UNL1     0.1085
     36 H         -3.148221   -2.426328   4.490649 H        1 UNL1     0.0691
     37 H         -0.228111   -4.53496   2.112241 H        1 UNL1     0.0691
     38 H         0.296926   -7.175408   6.177336 H        1 UNL1     0.0385
     39 H         1.43664   -6.477596   7.344663 H        1 UNL1     0.0385
     40 H         2.395757   -6.715616   5.022425 H        1 UNL1     0.0789
     41 H         3.936781   -4.984469   3.833515 H        1 UNL1     0.0623
     42 H         5.583954   -3.249524   4.415727 H        1 UNL1     0.0654
     43 H         3.457843   -2.436788   8.058322 H        1 UNL1     0.0654
     44 H         1.795773   -4.117431   7.493595 H        1 UNL1     0.0623
     45 H         5.176414   -0.945282   6.554197 H        1 UNL1     0.2921
     46 H         -3.077805   -3.785668   6.919947 H        1 UNL1     0.2922
     47 H         0.719973   -2.013352   2.773675 H        1 UNL1     0.2126
     48 H         1.568806   -1.144147   -1.23613 H        1 UNL1     0.2101
     49 H         -1.954622   0.356925   0.422777 H        1 UNL1     0.2100
     50 H         -0.989881   -4.230603   -1.333913 H        1 UNL1     0.2102
@<TRIPOS>BOND
     1     1     2    1
     2     1     6    1
     3     2     3    1
     4     3     4    1
     5     3    29    1
     6     3    33    1
     7     4     5    1
     8     5     6    1
     9     5     7    1
    10     5    35    1
    11     7     8    1
    12     8     9   ar
    13     8    13   ar
    14     9    10   ar
    15     9    36    1
    16    10    11   ar
    17    10    26    1
    18    11    12   ar
    19    11    14    1
    20    12    13   ar
    21    12    17    1
    22    13    37    1
    23    14    15    1
    24    14    25    2
    25    15    16    1
    26    15    38    1
    27    15    39    1
    28    16    17    1
    29    16    18    1
    30    16    40    1
    31    18    19   ar
    32    18    23   ar
    33    19    20   ar
    34    19    41    1
    35    20    21   ar
    36    20    42    1
    37    21    22   ar
    38    21    24    1
    39    22    23   ar
    40    22    43    1
    41    23    44    1
    42    24    45    1
    43    26    46    1
    44    27    47    1
    45    28    48    1
    46    29    49    1
    47    30    50    1
    48     1    31    1
    49     1    27    1
    50     2    32    1
    51     2    28    1
    52     4    34    1
    53     4    30    1
