@<TRIPOS>MOLECULE
*****
 50 53 0 0 0
SMALL
GASTEIGER

@<TRIPOS>ATOM
     1 C         -0.339838   -1.333661   1.696073 C.3        1 UNL1     0.1889
     2 C         -0.466129   -0.974566   0.191068 C.3        1 UNL1     0.1342
     3 C         -1.905853   -0.955127   -0.344921 C.3        1 UNL1     0.1174
     4 C         -2.797029   -2.01389   0.309252 C.3        1 UNL1     0.1456
     5 C         -2.648539   -2.045567   1.841346 C.3        1 UNL1     0.2326
     6 O         -1.285083   -2.269585   2.193016 O.3        1 UNL1     -0.3076
     7 O         -3.220886   -0.89907   2.496545 O.3        1 UNL1     -0.4605
     8 C         -3.734074   -1.117683   3.762394 C.ar        1 UNL1     0.1310
     9 C         -4.554904   -2.18929   4.130086 C.ar        1 UNL1     0.0226
     10 C         -5.011188   -2.333222   5.445757 C.ar        1 UNL1     0.1343
     11 C         -4.637843   -1.421172   6.431972 C.ar        1 UNL1     0.1007
     12 C         -3.852129   -0.32436   6.068049 C.ar        1 UNL1     0.1389
     13 C         -3.39564   -0.178415   4.744513 C.ar        1 UNL1     0.0229
     14 C         -5.022074   -1.571216   7.854648 C.2        1 UNL1     0.1740
     15 C         -4.351939   -0.628977   8.811024 C.3        1 UNL1     0.0520
     16 C         -4.276528   0.745292   8.160136 C.3        1 UNL1     0.1322
     17 O         -3.515503   0.6906   6.933384 O.3        1 UNL1     -0.4828
     18 C         -5.633121   1.442857   8.034509 C.ar        1 UNL1     -0.0067
     19 C         -6.000127   2.027236   6.804866 C.ar        1 UNL1     -0.0516
     20 C         -7.212677   2.713762   6.66934 C.ar        1 UNL1     -0.0198
     21 C         -8.06164   2.828963   7.755534 C.ar        1 UNL1     0.1169
     22 C         -7.743311   2.235553   8.970182 C.ar        1 UNL1     -0.0198
     23 C         -6.539298   1.533174   9.100849 C.ar        1 UNL1     -0.0516
     24 O         -9.216358   3.537241   7.596253 O.3        1 UNL1     -0.5068
     25 O         -5.774767   -2.451925   8.262435 O.2        1 UNL1     -0.2917
     26 O         -5.809798   -3.399951   5.738837 O.3        1 UNL1     -0.5058
     27 O         -0.232346   -0.199005   2.540934 O.3        1 UNL1     -0.3648
     28 O         0.262595   -1.952562   -0.573911 O.3        1 UNL1     -0.3841
     29 O         -2.458993   0.360075   -0.264851 O.3        1 UNL1     -0.3863
     30 O         -2.452852   -3.313862   -0.217345 O.3        1 UNL1     -0.3829
     31 H         0.618848   -1.850231   1.815048 H        1 UNL1     0.0937
     32 H         0.0   0.0   0.0 H        1 UNL1     0.0671
     33 H         -1.867529   -1.19072   -1.41765 H        1 UNL1     0.0649
     34 H         -3.846032   -1.831017   0.051275 H        1 UNL1     0.0683
     35 H         -3.20689   -2.940702   2.142769 H        1 UNL1     0.1085
     36 H         -4.834506   -2.962287   3.422684 H        1 UNL1     0.0691
     37 H         -2.786073   0.684942   4.486564 H        1 UNL1     0.0691
     38 H         -3.351383   -1.023358   9.018094 H        1 UNL1     0.0385
     39 H         -4.914048   -0.61165   9.750977 H        1 UNL1     0.0385
     40 H         -3.680807   1.385853   8.824454 H        1 UNL1     0.0789
     41 H         -5.346933   1.958625   5.939834 H        1 UNL1     0.0623
     42 H         -7.47894   3.170258   5.71922 H        1 UNL1     0.0654
     43 H         -8.407796   2.306772   9.822999 H        1 UNL1     0.0654
     44 H         -6.327568   1.073143   10.061258 H        1 UNL1     0.0623
     45 H         -8.985925   4.450627   7.361005 H        1 UNL1     0.2921
     46 H         -5.409915   -3.915892   6.456688 H        1 UNL1     0.2922
     47 H         0.51052   0.355399   2.264082 H        1 UNL1     0.2126
     48 H         1.197979   -1.87925   -0.302958 H        1 UNL1     0.2101
     49 H         -2.022736   0.941284   -0.908022 H        1 UNL1     0.2100
     50 H         -2.689501   -3.326419   -1.167899 H        1 UNL1     0.2102
@<TRIPOS>BOND
     1     1     2    1
     2     1     6    1
     3     2     3    1
     4     3     4    1
     5     3    29    1
     6     3    33    1
     7     4     5    1
     8     5     6    1
     9     5     7    1
    10     5    35    1
    11     7     8    1
    12     8     9   ar
    13     8    13   ar
    14     9    10   ar
    15     9    36    1
    16    10    11   ar
    17    10    26    1
    18    11    12   ar
    19    11    14    1
    20    12    13   ar
    21    12    17    1
    22    13    37    1
    23    14    15    1
    24    14    25    2
    25    15    16    1
    26    15    38    1
    27    15    39    1
    28    16    17    1
    29    16    18    1
    30    16    40    1
    31    18    19   ar
    32    18    23   ar
    33    19    20   ar
    34    19    41    1
    35    20    21   ar
    36    20    42    1
    37    21    22   ar
    38    21    24    1
    39    22    23   ar
    40    22    43    1
    41    23    44    1
    42    24    45    1
    43    26    46    1
    44    27    47    1
    45    28    48    1
    46    29    49    1
    47    30    50    1
    48     1    31    1
    49     1    27    1
    50     2    32    1
    51     2    28    1
    52     4    34    1
    53     4    30    1
