@<TRIPOS>MOLECULE
*****
 50 53 0 0 0
SMALL
GASTEIGER

@<TRIPOS>ATOM
     1 C         -0.323092   -1.362479   1.676325 C.3        1 UNL1     0.1889
     2 C         -0.46442   -0.977662   0.179034 C.3        1 UNL1     0.1342
     3 C         -1.909455   -0.94895   -0.342039 C.3        1 UNL1     0.1174
     4 C         -2.794266   -2.018696   0.302842 C.3        1 UNL1     0.1456
     5 C         -2.630388   -2.076608   1.832598 C.3        1 UNL1     0.2326
     6 O         -1.26352   -2.306709   2.166653 O.3        1 UNL1     -0.3076
     7 O         -3.195842   -0.941457   2.51305 O.3        1 UNL1     -0.4605
     8 C         -3.706669   -1.184072   3.775477 C.ar        1 UNL1     0.1310
     9 C         -4.53134   -2.259438   4.123051 C.ar        1 UNL1     0.0226
     10 C         -4.984795   -2.428678   5.436686 C.ar        1 UNL1     0.1343
     11 C         -4.604753   -1.539008   6.440626 C.ar        1 UNL1     0.1007
     12 C         -3.815075   -0.438365   6.09744 C.ar        1 UNL1     0.1389
     13 C         -3.361425   -0.266949   4.775983 C.ar        1 UNL1     0.0229
     14 C         -4.985903   -1.716904   7.860918 C.2        1 UNL1     0.1740
     15 C         -4.309017   -0.797749   8.834843 C.3        1 UNL1     0.0520
     16 C         -4.22914   0.589413   8.212463 C.3        1 UNL1     0.1322
     17 O         -3.471606   0.556871   6.982767 O.3        1 UNL1     -0.4828
     18 C         -5.582908   1.29546   8.105068 C.ar        1 UNL1     -0.0067
     19 C         -5.950523   1.906915   6.888846 C.ar        1 UNL1     -0.0516
     20 C         -7.160325   2.601493   6.770931 C.ar        1 UNL1     -0.0198
     21 C         -8.005895   2.697845   7.861599 C.ar        1 UNL1     0.1169
     22 C         -7.687037   2.077889   9.062774 C.ar        1 UNL1     -0.0198
     23 C         -6.485856   1.367601   9.175524 C.ar        1 UNL1     -0.0516
     24 O         -9.157831   3.414405   7.72023 O.3        1 UNL1     -0.5068
     25 O         -5.741472   -2.602553   8.252361 O.2        1 UNL1     -0.2917
     26 O         -5.787421   -3.497714   5.709704 O.3        1 UNL1     -0.5058
     27 O         -0.206838   -0.242462   2.539363 O.3        1 UNL1     -0.3648
     28 O         0.256341   -1.942468   -0.609864 O.3        1 UNL1     -0.3841
     29 O         -2.461444   0.364727   -0.233907 O.3        1 UNL1     -0.3863
     30 O         -2.455714   -3.309485   -0.249367 O.3        1 UNL1     -0.3829
     31 H         0.636617   -1.881077   1.776793 H        1 UNL1     0.0937
     32 H         0.0   0.0   0.0 H        1 UNL1     0.0671
     33 H         -1.881974   -1.166145   -1.418975 H        1 UNL1     0.0649
     34 H         -3.845764   -1.83136   0.058594 H        1 UNL1     0.0683
     35 H         -3.185897   -2.976734   2.124253 H        1 UNL1     0.1085
     36 H         -4.81628   -3.016303   3.400497 H        1 UNL1     0.0691
     37 H         -2.748663   0.59887   4.534376 H        1 UNL1     0.0691
     38 H         -3.309703   -1.200794   9.030937 H        1 UNL1     0.0385
     39 H         -4.868562   -0.797482   9.776484 H        1 UNL1     0.0385
     40 H         -3.628795   1.213364   8.888326 H        1 UNL1     0.0789
     41 H         -5.299926   1.853412   6.020795 H        1 UNL1     0.0623
     42 H         -7.427036   3.078832   5.831238 H        1 UNL1     0.0654
     43 H         -8.348944   2.134304   9.918699 H        1 UNL1     0.0654
     44 H         -6.273666   0.886756   10.125581 H        1 UNL1     0.0623
     45 H         -8.923598   4.336317   7.52547 H        1 UNL1     0.2921
     46 H         -5.387972   -4.030247   6.41558 H        1 UNL1     0.2922
     47 H         0.52991   0.319444   2.261291 H        1 UNL1     0.2126
     48 H         1.196449   -1.863999   -0.357334 H        1 UNL1     0.2101
     49 H         -2.031535   0.956833   -0.871389 H        1 UNL1     0.2100
     50 H         -2.701909   -3.305749   -1.197569 H        1 UNL1     0.2102
@<TRIPOS>BOND
     1     1     2    1
     2     1     6    1
     3     2     3    1
     4     3     4    1
     5     3    29    1
     6     3    33    1
     7     4     5    1
     8     5     6    1
     9     5     7    1
    10     5    35    1
    11     7     8    1
    12     8     9   ar
    13     8    13   ar
    14     9    10   ar
    15     9    36    1
    16    10    11   ar
    17    10    26    1
    18    11    12   ar
    19    11    14    1
    20    12    13   ar
    21    12    17    1
    22    13    37    1
    23    14    15    1
    24    14    25    2
    25    15    16    1
    26    15    38    1
    27    15    39    1
    28    16    17    1
    29    16    18    1
    30    16    40    1
    31    18    19   ar
    32    18    23   ar
    33    19    20   ar
    34    19    41    1
    35    20    21   ar
    36    20    42    1
    37    21    22   ar
    38    21    24    1
    39    22    23   ar
    40    22    43    1
    41    23    44    1
    42    24    45    1
    43    26    46    1
    44    27    47    1
    45    28    48    1
    46    29    49    1
    47    30    50    1
    48     1    31    1
    49     1    27    1
    50     2    32    1
    51     2    28    1
    52     4    34    1
    53     4    30    1
