@<TRIPOS>MOLECULE
*****
 50 53 0 0 0
SMALL
GASTEIGER

@<TRIPOS>ATOM
     1 C         -0.335236   -1.330369   1.69957 C.3        1 UNL1     0.1889
     2 C         -0.464016   -0.975017   0.193887 C.3        1 UNL1     0.1342
     3 C         -1.904413   -0.959603   -0.34042 C.3        1 UNL1     0.1174
     4 C         -2.792761   -2.018561   0.317276 C.3        1 UNL1     0.1456
     5 C         -2.642382   -2.04639   1.84926 C.3        1 UNL1     0.2326
     6 O         -1.278077   -2.266959   2.199816 O.3        1 UNL1     -0.3076
     7 O         -3.216161   -0.899481   2.502481 O.3        1 UNL1     -0.4605
     8 C         -4.130886   -1.167374   3.504997 C.ar        1 UNL1     0.1310
     9 C         -5.175431   -2.094409   3.422338 C.ar        1 UNL1     0.0226
     10 C         -6.041578   -2.306919   4.501472 C.ar        1 UNL1     0.1343
     11 C         -5.869389   -1.61402   5.699004 C.ar        1 UNL1     0.1007
     12 C         -4.85519   -0.656049   5.779481 C.ar        1 UNL1     0.1389
     13 C         -3.986057   -0.440654   4.693367 C.ar        1 UNL1     0.0229
     14 C         -6.702903   -1.859748   6.898599 C.2        1 UNL1     0.1740
     15 C         -6.238777   -1.191931   8.159613 C.3        1 UNL1     0.0520
     16 C         -5.757661   0.210379   7.813184 C.3        1 UNL1     0.1322
     17 O         -4.66377   0.159031   6.870934 O.3        1 UNL1     -0.4828
     18 C         -6.88492   1.170158   7.424812 C.ar        1 UNL1     -0.0067
     19 C         -6.75833   1.950906   6.257499 C.ar        1 UNL1     -0.0516
     20 C         -7.749053   2.872803   5.898982 C.ar        1 UNL1     -0.0198
     21 C         -8.865123   3.028237   6.701513 C.ar        1 UNL1     0.1169
     22 C         -9.034111   2.249944   7.839292 C.ar        1 UNL1     -0.0198
     23 C         -8.052311   1.314832   8.188136 C.ar        1 UNL1     -0.0516
     24 O         -9.79089   3.962672   6.340698 O.3        1 UNL1     -0.5068
     25 O         -7.668011   -2.619337   6.907283 O.2        1 UNL1     -0.2917
     26 O         -7.040915   -3.224382   4.35597 O.3        1 UNL1     -0.5058
     27 O         -0.228929   -0.193548   2.541665 O.3        1 UNL1     -0.3648
     28 O         0.265683   -1.953379   -0.56969 O.3        1 UNL1     -0.3841
     29 O         -2.459998   0.354712   -0.262741 O.3        1 UNL1     -0.3863
     30 O         -2.446701   -3.319086   -0.206714 O.3        1 UNL1     -0.3829
     31 H         0.624588   -1.844811   1.818595 H        1 UNL1     0.0937
     32 H         0.0   0.0   0.0 H        1 UNL1     0.0671
     33 H         -1.866914   -1.197613   -1.412644 H        1 UNL1     0.0649
     34 H         -3.842422   -1.838312   0.060132 H        1 UNL1     0.0683
     35 H         -3.198642   -2.941899   2.153429 H        1 UNL1     0.1085
     36 H         -5.32763   -2.704679   2.538864 H        1 UNL1     0.0691
     37 H         -3.205121   0.311651   4.780939 H        1 UNL1     0.0691
     38 H         -5.425837   -1.797039   8.574943 H        1 UNL1     0.0385
     39 H         -7.060911   -1.180612   8.883316 H        1 UNL1     0.0385
     40 H         -5.315357   0.635194   8.724458 H        1 UNL1     0.0789
     41 H         -5.887465   1.854146   5.615717 H        1 UNL1     0.0623
     42 H         -7.634236   3.477504   5.002787 H        1 UNL1     0.0654
     43 H         -9.911379   2.352845   8.466765 H        1 UNL1     0.0654
     44 H         -8.222029   0.716217   9.077911 H        1 UNL1     0.0623
     45 H         -9.361418   4.833437   6.334505 H        1 UNL1     0.2921
     46 H         -6.969857   -3.893723   5.054787 H        1 UNL1     0.2922
     47 H         0.51338   0.360936   2.263486 H        1 UNL1     0.2126
     48 H         1.198478   -1.889327   -0.287692 H        1 UNL1     0.2101
     49 H         -2.019907   0.937345   -0.902 H        1 UNL1     0.2100
     50 H         -2.679236   -3.332386   -1.158272 H        1 UNL1     0.2102
@<TRIPOS>BOND
     1     1     2    1
     2     1     6    1
     3     2     3    1
     4     3     4    1
     5     3    29    1
     6     3    33    1
     7     4     5    1
     8     5     6    1
     9     5     7    1
    10     5    35    1
    11     7     8    1
    12     8     9   ar
    13     8    13   ar
    14     9    10   ar
    15     9    36    1
    16    10    11   ar
    17    10    26    1
    18    11    12   ar
    19    11    14    1
    20    12    13   ar
    21    12    17    1
    22    13    37    1
    23    14    15    1
    24    14    25    2
    25    15    16    1
    26    15    38    1
    27    15    39    1
    28    16    17    1
    29    16    18    1
    30    16    40    1
    31    18    19   ar
    32    18    23   ar
    33    19    20   ar
    34    19    41    1
    35    20    21   ar
    36    20    42    1
    37    21    22   ar
    38    21    24    1
    39    22    23   ar
    40    22    43    1
    41    23    44    1
    42    24    45    1
    43    26    46    1
    44    27    47    1
    45    28    48    1
    46    29    49    1
    47    30    50    1
    48     1    31    1
    49     1    27    1
    50     2    32    1
    51     2    28    1
    52     4    34    1
    53     4    30    1
