@<TRIPOS>MOLECULE
*****
 50 53 0 0 0
SMALL
GASTEIGER

@<TRIPOS>ATOM
     1 C         1.478422   -1.587011   0.257815 C.3        1 UNL1     0.1889
     2 C         0.323659   -0.69384   0.785744 C.3        1 UNL1     0.1342
     3 C         0.660071   0.106351   2.053414 C.3        1 UNL1     0.1174
     4 C         1.593441   -0.649705   3.002265 C.3        1 UNL1     0.1456
     5 C         2.788655   -1.28733   2.270649 C.3        1 UNL1     0.2326
     6 O         2.321145   -2.161459   1.245855 O.3        1 UNL1     -0.3076
     7 O         3.751089   -0.326622   1.799393 O.3        1 UNL1     -0.4605
     8 C         3.252087   0.921864   1.47411 C.ar        1 UNL1     0.1310
     9 C         2.882873   1.337663   0.190329 C.ar        1 UNL1     0.0226
     10 C         2.370059   2.620622   -0.035364 C.ar        1 UNL1     0.1343
     11 C         2.191561   3.511558   1.022092 C.ar        1 UNL1     0.1007
     12 C         2.594916   3.122277   2.302151 C.ar        1 UNL1     0.1389
     13 C         3.112986   1.833151   2.528399 C.ar        1 UNL1     0.0229
     14 C         1.576301   4.848432   0.853646 C.2        1 UNL1     0.1740
     15 C         1.257579   5.581178   2.123704 C.3        1 UNL1     0.0520
     16 C         2.399992   5.362134   3.105981 C.3        1 UNL1     0.1322
     17 O         2.56485   3.95642   3.39557 O.3        1 UNL1     -0.4828
     18 C         3.692081   6.086029   2.719709 C.ar        1 UNL1     -0.0067
     19 C         3.775783   6.734235   1.470295 C.ar        1 UNL1     -0.0516
     20 C         4.958474   7.364968   1.066092 C.ar        1 UNL1     -0.0198
     21 C         6.064259   7.348218   1.897228 C.ar        1 UNL1     0.1169
     22 C         6.002232   6.746969   3.147625 C.ar        1 UNL1     -0.0198
     23 C         4.813907   6.13212   3.559814 C.ar        1 UNL1     -0.0516
     24 O         7.210328   7.940127   1.453866 O.3        1 UNL1     -0.5068
     25 O         1.263172   5.315899   -0.238101 O.2        1 UNL1     -0.2917
     26 O         2.030058   2.964535   -1.311181 O.3        1 UNL1     -0.5058
     27 O         2.228815   -0.98361   -0.784108 O.3        1 UNL1     -0.3648
     28 O         -0.799952   -1.538164   1.097704 O.3        1 UNL1     -0.3841
     29 O         1.147449   1.407044   1.717566 O.3        1 UNL1     -0.3863
     30 O         0.848261   -1.69147   3.66944 O.3        1 UNL1     -0.3829
     31 H         1.009832   -2.456481   -0.216024 H        1 UNL1     0.0937
     32 H         0.0   0.0   0.0 H        1 UNL1     0.0671
     33 H         -0.277611   0.278317   2.600131 H        1 UNL1     0.0649
     34 H         1.964595   0.027121   3.779794 H        1 UNL1     0.0683
     35 H         3.261767   -1.916338   3.035104 H        1 UNL1     0.1085
     36 H         2.944886   0.67284   -0.664238 H        1 UNL1     0.0691
     37 H         3.420714   1.554891   3.534067 H        1 UNL1     0.0691
     38 H         0.318135   5.175001   2.513565 H        1 UNL1     0.0385
     39 H         1.103822   6.641777   1.897282 H        1 UNL1     0.0385
     40 H         2.093482   5.805508   4.063056 H        1 UNL1     0.0789
     41 H         2.924622   6.753531   0.795903 H        1 UNL1     0.0623
     42 H         5.014241   7.851146   0.095251 H        1 UNL1     0.0654
     43 H         6.857557   6.741049   3.812677 H        1 UNL1     0.0654
     44 H         4.797706   5.681252   4.547387 H        1 UNL1     0.0623
     45 H         7.528489   7.450006   0.67845 H        1 UNL1     0.2921
     46 H         2.556882   2.443877   -1.937906 H        1 UNL1     0.2922
     47 H         1.637848   -0.660739   -1.478637 H        1 UNL1     0.2126
     48 H         -1.209583   -1.784591   0.246112 H        1 UNL1     0.2101
     49 H         1.328839   1.455809   0.765457 H        1 UNL1     0.2100
     50 H         1.491088   -2.309326   4.075322 H        1 UNL1     0.2102
@<TRIPOS>BOND
     1     1     2    1
     2     1     6    1
     3     2     3    1
     4     3     4    1
     5     3    29    1
     6     3    33    1
     7     4     5    1
     8     5     6    1
     9     5     7    1
    10     5    35    1
    11     7     8    1
    12     8     9   ar
    13     8    13   ar
    14     9    10   ar
    15     9    36    1
    16    10    11   ar
    17    10    26    1
    18    11    12   ar
    19    11    14    1
    20    12    13   ar
    21    12    17    1
    22    13    37    1
    23    14    15    1
    24    14    25    2
    25    15    16    1
    26    15    38    1
    27    15    39    1
    28    16    17    1
    29    16    18    1
    30    16    40    1
    31    18    19   ar
    32    18    23   ar
    33    19    20   ar
    34    19    41    1
    35    20    21   ar
    36    20    42    1
    37    21    22   ar
    38    21    24    1
    39    22    23   ar
    40    22    43    1
    41    23    44    1
    42    24    45    1
    43    26    46    1
    44    27    47    1
    45    28    48    1
    46    29    49    1
    47    30    50    1
    48     1    31    1
    49     1    27    1
    50     2    32    1
    51     2    28    1
    52     4    34    1
    53     4    30    1
