@<TRIPOS>MOLECULE
*****
 50 53 0 0 0
SMALL
GASTEIGER

@<TRIPOS>ATOM
     1 C         -0.357954   -1.341831   1.685871 C.3        1 UNL1     0.1889
     2 C         -0.47564   -0.971536   0.182884 C.3        1 UNL1     0.1342
     3 C         -1.913218   -0.935395   -0.357975 C.3        1 UNL1     0.1174
     4 C         -2.816292   -1.99035   0.285954 C.3        1 UNL1     0.1456
     5 C         -2.673529   -2.033632   1.818308 C.3        1 UNL1     0.2326
     6 O         -1.31342   -2.272411   2.173212 O.3        1 UNL1     -0.3076
     7 O         -3.237753   -0.88638   2.479204 O.3        1 UNL1     -0.4605
     8 C         -3.757392   -1.108776   3.741759 C.ar        1 UNL1     0.1310
     9 C         -4.589224   -2.175297   4.099373 C.ar        1 UNL1     0.0226
     10 C         -5.051458   -2.323869   5.412449 C.ar        1 UNL1     0.1343
     11 C         -4.673341   -1.42188   6.40607 C.ar        1 UNL1     0.1007
     12 C         -3.876407   -0.32986   6.052271 C.ar        1 UNL1     0.1389
     13 C         -3.413921   -0.179224   4.731345 C.ar        1 UNL1     0.0229
     14 C         -5.063961   -1.577936   7.826357 C.2        1 UNL1     0.1740
     15 C         -4.388687   -0.648263   8.791377 C.3        1 UNL1     0.0520
     16 C         -4.298484   0.729588   8.150013 C.3        1 UNL1     0.1322
     17 O         -3.533643   0.676177   6.92558 O.3        1 UNL1     -0.4828
     18 C         -5.648229   1.440308   8.024353 C.ar        1 UNL1     -0.0067
     19 C         -6.011958   2.023285   6.793072 C.ar        1 UNL1     -0.0516
     20 C         -7.2178   2.72147   6.657256 C.ar        1 UNL1     -0.0198
     21 C         -8.063218   2.849732   7.74475 C.ar        1 UNL1     0.1169
     22 C         -7.748286   2.258154   8.961177 C.ar        1 UNL1     -0.0198
     23 C         -6.551152   1.544184   9.092218 C.ar        1 UNL1     -0.0516
     24 O         -9.211062   3.568984   7.584968 O.3        1 UNL1     -0.5068
     25 O         -5.826066   -2.454461   8.225587 O.2        1 UNL1     -0.2917
     26 O         -5.860763   -3.385216   5.695563 O.3        1 UNL1     -0.5058
     27 O         -0.243152   -0.213882   2.538713 O.3        1 UNL1     -0.3648
     28 O         0.246876   -1.950988   -0.58611 O.3        1 UNL1     -0.3841
     29 O         -2.454665   0.384226   -0.27099 O.3        1 UNL1     -0.3863
     30 O         -2.482077   -3.28985   -0.248172 O.3        1 UNL1     -0.3829
     31 H         0.595571   -1.867899   1.804709 H        1 UNL1     0.0937
     32 H         0.0   0.0   0.0 H        1 UNL1     0.0671
     33 H         -1.873233   -1.164142   -1.432124 H        1 UNL1     0.0649
     34 H         -3.862668   -1.796206   0.025558 H        1 UNL1     0.0683
     35 H         -3.241056   -2.925641   2.111757 H        1 UNL1     0.1085
     36 H         -4.873328   -2.940963   3.385818 H        1 UNL1     0.0691
     37 H         -2.795624   0.68025   4.481334 H        1 UNL1     0.0691
     38 H         -3.392497   -1.05312   8.999275 H        1 UNL1     0.0385
     39 H         -4.953944   -0.632107   9.729461 H        1 UNL1     0.0385
     40 H         -3.699327   1.360235   8.820695 H        1 UNL1     0.0789
     41 H         -5.361352   1.944503   5.926957 H        1 UNL1     0.0623
     42 H         -7.481481   3.176708   5.705813 H        1 UNL1     0.0654
     43 H         -8.410182   2.339608   9.815091 H        1 UNL1     0.0654
     44 H         -6.342014   1.086005   10.05408 H        1 UNL1     0.0623
     45 H         -8.971984   4.478307   7.342709 H        1 UNL1     0.2921
     46 H         -5.468132   -3.909572   6.411318 H        1 UNL1     0.2922
     47 H         0.505697   0.335572   2.268186 H        1 UNL1     0.2126
     48 H         1.18192   -1.888016   -0.311413 H        1 UNL1     0.2101
     49 H         -2.005146   0.967692   -0.902887 H        1 UNL1     0.2100
     50 H         -2.715458   -3.293888   -1.199607 H        1 UNL1     0.2102
@<TRIPOS>BOND
     1     1     2    1
     2     1     6    1
     3     2     3    1
     4     3     4    1
     5     3    29    1
     6     3    33    1
     7     4     5    1
     8     5     6    1
     9     5     7    1
    10     5    35    1
    11     7     8    1
    12     8     9   ar
    13     8    13   ar
    14     9    10   ar
    15     9    36    1
    16    10    11   ar
    17    10    26    1
    18    11    12   ar
    19    11    14    1
    20    12    13   ar
    21    12    17    1
    22    13    37    1
    23    14    15    1
    24    14    25    2
    25    15    16    1
    26    15    38    1
    27    15    39    1
    28    16    17    1
    29    16    18    1
    30    16    40    1
    31    18    19   ar
    32    18    23   ar
    33    19    20   ar
    34    19    41    1
    35    20    21   ar
    36    20    42    1
    37    21    22   ar
    38    21    24    1
    39    22    23   ar
    40    22    43    1
    41    23    44    1
    42    24    45    1
    43    26    46    1
    44    27    47    1
    45    28    48    1
    46    29    49    1
    47    30    50    1
    48     1    31    1
    49     1    27    1
    50     2    32    1
    51     2    28    1
    52     4    34    1
    53     4    30    1
