@<TRIPOS>MOLECULE
*****
 50 53 0 0 0
SMALL
GASTEIGER

@<TRIPOS>ATOM
     1 C         -0.490709   -1.438478   -1.568691 C.3        1 UNL1     0.1889
     2 C         -0.546312   -0.946371   -0.097406 C.3        1 UNL1     0.1342
     3 C         -0.003331   -1.94691   0.934368 C.3        1 UNL1     0.1174
     4 C         -0.293018   -3.402388   0.55916 C.3        1 UNL1     0.1456
     5 C         0.03436   -3.708579   -0.91374 C.3        1 UNL1     0.2326
     6 O         -0.695462   -2.829607   -1.766756 O.3        1 UNL1     -0.3076
     7 O         1.445642   -3.72783   -1.195229 O.3        1 UNL1     -0.4605
     8 C         1.798212   -3.664679   -2.531355 C.ar        1 UNL1     0.1310
     9 C         2.729267   -4.495539   -3.163898 C.ar        1 UNL1     0.0226
     10 C         3.006212   -4.363922   -4.52987 C.ar        1 UNL1     0.1343
     11 C         2.340646   -3.412996   -5.302271 C.ar        1 UNL1     0.1007
     12 C         1.438885   -2.550343   -4.67343 C.ar        1 UNL1     0.1389
     13 C         1.162541   -2.68114   -3.2994 C.ar        1 UNL1     0.0229
     14 C         2.532821   -3.286346   -6.765549 C.2        1 UNL1     0.1740
     15 C         1.577317   -2.367634   -7.468776 C.3        1 UNL1     0.0520
     16 C         1.361385   -1.138146   -6.597174 C.3        1 UNL1     0.1322
     17 O         0.808962   -1.509202   -5.314904 O.3        1 UNL1     -0.4828
     18 C         2.580475   -0.21589   -6.519792 C.ar        1 UNL1     -0.0067
     19 C         2.474521   1.112246   -6.981357 C.ar        1 UNL1     -0.0516
     20 C         3.582725   1.967634   -6.968794 C.ar        1 UNL1     -0.0198
     21 C         4.801471   1.505673   -6.505031 C.ar        1 UNL1     0.1169
     22 C         4.929017   0.213244   -6.012895 C.ar        1 UNL1     -0.0198
     23 C         3.816458   -0.636607   -6.00819 C.ar        1 UNL1     -0.0516
     24 O         5.867538   2.35564   -6.543231 O.3        1 UNL1     -0.5068
     25 O         3.358633   -3.939396   -7.398039 O.2        1 UNL1     -0.2917
     26 O         3.92569   -5.204729   -5.085918 O.3        1 UNL1     -0.5058
     27 O         0.644406   -0.969798   -2.279071 O.3        1 UNL1     -0.3648
     28 O         -1.919876   -0.682313   0.243624 O.3        1 UNL1     -0.3841
     29 O         1.381488   -1.70718   1.193095 O.3        1 UNL1     -0.3863
     30 O         -1.690555   -3.682444   0.791856 O.3        1 UNL1     -0.3829
     31 H         -1.340571   -0.978551   -2.084714 H        1 UNL1     0.0937
     32 H         0.0   0.0   0.0 H        1 UNL1     0.0671
     33 H         -0.51551   -1.75654   1.887863 H        1 UNL1     0.0649
     34 H         0.280792   -4.076362   1.20484 H        1 UNL1     0.0683
     35 H         -0.371576   -4.71572   -1.071097 H        1 UNL1     0.1085
     36 H         3.238713   -5.290718   -2.630724 H        1 UNL1     0.0691
     37 H         0.457229   -1.996409   -2.833384 H        1 UNL1     0.0691
     38 H         0.640677   -2.915264   -7.618222 H        1 UNL1     0.0385
     39 H         1.984388   -2.111256   -8.45282 H        1 UNL1     0.0385
     40 H         0.573235   -0.538704   -7.072577 H        1 UNL1     0.0789
     41 H         1.531174   1.496006   -7.358817 H        1 UNL1     0.0623
     42 H         3.491222   2.985964   -7.338446 H        1 UNL1     0.0654
     43 H         5.875073   -0.154022   -5.633415 H        1 UNL1     0.0654
     44 H         3.949615   -1.636536   -5.606622 H        1 UNL1     0.0623
     45 H         5.970573   2.67766   -7.453398 H        1 UNL1     0.2921
     46 H         4.748911   -4.719077   -5.252831 H        1 UNL1     0.2922
     47 H         0.375888   -0.335387   -2.958247 H        1 UNL1     0.2126
     48 H         -2.057066   -1.034171   1.144239 H        1 UNL1     0.2101
     49 H         1.800453   -1.315358   0.410319 H        1 UNL1     0.2100
     50 H         -2.148591   -3.671031   -0.074046 H        1 UNL1     0.2102
@<TRIPOS>BOND
     1     1     2    1
     2     1     6    1
     3     2     3    1
     4     3     4    1
     5     3    29    1
     6     3    33    1
     7     4     5    1
     8     5     6    1
     9     5     7    1
    10     5    35    1
    11     7     8    1
    12     8     9   ar
    13     8    13   ar
    14     9    10   ar
    15     9    36    1
    16    10    11   ar
    17    10    26    1
    18    11    12   ar
    19    11    14    1
    20    12    13   ar
    21    12    17    1
    22    13    37    1
    23    14    15    1
    24    14    25    2
    25    15    16    1
    26    15    38    1
    27    15    39    1
    28    16    17    1
    29    16    18    1
    30    16    40    1
    31    18    19   ar
    32    18    23   ar
    33    19    20   ar
    34    19    41    1
    35    20    21   ar
    36    20    42    1
    37    21    22   ar
    38    21    24    1
    39    22    23   ar
    40    22    43    1
    41    23    44    1
    42    24    45    1
    43    26    46    1
    44    27    47    1
    45    28    48    1
    46    29    49    1
    47    30    50    1
    48     1    31    1
    49     1    27    1
    50     2    32    1
    51     2    28    1
    52     4    34    1
    53     4    30    1
