@<TRIPOS>MOLECULE
*****
 50 53 0 0 0
SMALL
GASTEIGER

@<TRIPOS>ATOM
     1 C         0.984759   -1.323434   -1.431634 C.3        1 UNL1     0.1889
     2 C         -0.270204   -0.593021   -0.88254 C.3        1 UNL1     0.1342
     3 C         -1.444696   -1.516767   -0.525151 C.3        1 UNL1     0.1174
     4 C         -1.558274   -2.721945   -1.462042 C.3        1 UNL1     0.1456
     5 C         -0.203968   -3.414656   -1.699464 C.3        1 UNL1     0.2326
     6 O         0.736424   -2.477962   -2.220171 O.3        1 UNL1     -0.3076
     7 O         0.28503   -4.127108   -0.548546 O.3        1 UNL1     -0.4605
     8 C         1.034229   -5.260146   -0.810185 C.ar        1 UNL1     0.1310
     9 C         0.575099   -6.397763   -1.482738 C.ar        1 UNL1     0.0226
     10 C         1.418258   -7.491028   -1.714592 C.ar        1 UNL1     0.1343
     11 C         2.749134   -7.463482   -1.300042 C.ar        1 UNL1     0.1007
     12 C         3.207711   -6.349834   -0.591326 C.ar        1 UNL1     0.1389
     13 C         2.358981   -5.251785   -0.356003 C.ar        1 UNL1     0.0229
     14 C         3.706413   -8.555421   -1.592345 C.2        1 UNL1     0.1740
     15 C         5.14266   -8.263101   -1.270952 C.3        1 UNL1     0.0520
     16 C         5.196559   -7.505688   0.048661 C.3        1 UNL1     0.1322
     17 O         4.466471   -6.262484   -0.043459 O.3        1 UNL1     -0.4828
     18 C         4.839553   -8.362314   1.265814 C.ar        1 UNL1     -0.0067
     19 C         3.493958   -8.718149   1.491581 C.ar        1 UNL1     -0.0516
     20 C         3.12694   -9.460483   2.620386 C.ar        1 UNL1     -0.0198
     21 C         4.09292   -9.845848   3.532638 C.ar        1 UNL1     0.1169
     22 C         5.430785   -9.5393   3.32054 C.ar        1 UNL1     -0.0198
     23 C         5.80053   -8.812824   2.182306 C.ar        1 UNL1     -0.0516
     24 O         3.692829   -10.535211   4.639483 O.3        1 UNL1     -0.5068
     25 O         3.385015   -9.608849   -2.135923 O.2        1 UNL1     -0.2917
     26 O         0.908526   -8.570474   -2.375315 O.3        1 UNL1     -0.5058
     27 O         1.974599   -1.566249   -0.444697 O.3        1 UNL1     -0.3648
     28 O         -0.738519   0.32648   -1.886486 O.3        1 UNL1     -0.3841
     29 O         -1.394844   -1.890151   0.853338 O.3        1 UNL1     -0.3863
     30 O         -2.085495   -2.285378   -2.733709 O.3        1 UNL1     -0.3829
     31 H         1.466636   -0.633288   -2.132757 H        1 UNL1     0.0937
     32 H         0.0   0.0   0.0 H        1 UNL1     0.0671
     33 H         -2.3724   -0.938421   -0.637412 H        1 UNL1     0.0649
     34 H         -2.269122   -3.448225   -1.052636 H        1 UNL1     0.0683
     35 H         -0.412394   -4.13577   -2.499735 H        1 UNL1     0.1085
     36 H         -0.432577   -6.458012   -1.879071 H        1 UNL1     0.0691
     37 H         2.739881   -4.397262   0.199153 H        1 UNL1     0.0691
     38 H         5.549024   -7.65961   -2.089606 H        1 UNL1     0.0385
     39 H         5.700377   -9.204972   -1.230832 H        1 UNL1     0.0385
     40 H         6.240147   -7.200337   0.204241 H        1 UNL1     0.0789
     41 H         2.7157   -8.419886   0.795159 H        1 UNL1     0.0623
     42 H         2.084412   -9.718459   2.789493 H        1 UNL1     0.0654
     43 H         6.19735   -9.849059   4.020781 H        1 UNL1     0.0654
     44 H         6.856053   -8.60002   2.042911 H        1 UNL1     0.0623
     45 H         3.773604   -9.950783   5.410609 H        1 UNL1     0.2921
     46 H         1.172635   -9.384237   -1.917661 H        1 UNL1     0.2922
     47 H         2.223817   -0.738842   -0.009786 H        1 UNL1     0.2126
     48 H         -1.315966   -0.184275   -2.485999 H        1 UNL1     0.2101
     49 H         -0.971122   -2.758403   0.944948 H        1 UNL1     0.2100
     50 H         -3.019154   -2.021395   -2.598407 H        1 UNL1     0.2102
@<TRIPOS>BOND
     1     1     2    1
     2     1     6    1
     3     2     3    1
     4     3     4    1
     5     3    29    1
     6     3    33    1
     7     4     5    1
     8     5     6    1
     9     5     7    1
    10     5    35    1
    11     7     8    1
    12     8     9   ar
    13     8    13   ar
    14     9    10   ar
    15     9    36    1
    16    10    11   ar
    17    10    26    1
    18    11    12   ar
    19    11    14    1
    20    12    13   ar
    21    12    17    1
    22    13    37    1
    23    14    15    1
    24    14    25    2
    25    15    16    1
    26    15    38    1
    27    15    39    1
    28    16    17    1
    29    16    18    1
    30    16    40    1
    31    18    19   ar
    32    18    23   ar
    33    19    20   ar
    34    19    41    1
    35    20    21   ar
    36    20    42    1
    37    21    22   ar
    38    21    24    1
    39    22    23   ar
    40    22    43    1
    41    23    44    1
    42    24    45    1
    43    26    46    1
    44    27    47    1
    45    28    48    1
    46    29    49    1
    47    30    50    1
    48     1    31    1
    49     1    27    1
    50     2    32    1
    51     2    28    1
    52     4    34    1
    53     4    30    1
