@<TRIPOS>MOLECULE
*****
 50 53 0 0 0
SMALL
GASTEIGER

@<TRIPOS>ATOM
     1 C         0.678807   -1.969793   0.6557 C.3        1 UNL1     0.1889
     2 C         -0.242031   -1.052466   -0.193128 C.3        1 UNL1     0.1342
     3 C         -1.746336   -1.269986   0.030961 C.3        1 UNL1     0.1174
     4 C         -2.099626   -2.733411   0.307892 C.3        1 UNL1     0.1456
     5 C         -1.163202   -3.380679   1.344482 C.3        1 UNL1     0.2326
     6 O         0.190102   -3.279087   0.907315 O.3        1 UNL1     -0.3076
     7 O         -1.363786   -2.890941   2.682855 O.3        1 UNL1     -0.4605
     8 C         -1.118291   -3.793659   3.701855 C.ar        1 UNL1     0.1310
     9 C         -1.56204   -5.120071   3.733761 C.ar        1 UNL1     0.0226
     10 C         -1.246023   -5.963373   4.805618 C.ar        1 UNL1     0.1343
     11 C         -0.457766   -5.507195   5.861266 C.ar        1 UNL1     0.1007
     12 C         -0.043139   -4.172703   5.860493 C.ar        1 UNL1     0.1389
     13 C         -0.363245   -3.324213   4.783911 C.ar        1 UNL1     0.0229
     14 C         -0.023841   -6.378885   6.977518 C.2        1 UNL1     0.1740
     15 C         0.998537   -5.78783   7.903233 C.3        1 UNL1     0.0520
     16 C         0.644748   -4.326364   8.141786 C.3        1 UNL1     0.1322
     17 O         0.64462   -3.589382   6.899238 O.3        1 UNL1     -0.4828
     18 C         -0.608714   -4.127562   8.997377 C.ar        1 UNL1     -0.0067
     19 C         -1.608793   -3.233312   8.563358 C.ar        1 UNL1     -0.0516
     20 C         -2.745307   -2.992529   9.344589 C.ar        1 UNL1     -0.0198
     21 C         -2.889629   -3.632733   10.56243 C.ar        1 UNL1     0.1169
     22 C         -1.938087   -4.544186   11.001359 C.ar        1 UNL1     -0.0198
     23 C         -0.810423   -4.799097   10.211769 C.ar        1 UNL1     -0.0516
     24 O         -3.991295   -3.344601   11.313239 O.3        1 UNL1     -0.5068
     25 O         -0.398935   -7.540487   7.113425 O.2        1 UNL1     -0.2917
     26 O         -1.710614   -7.245906   4.776493 O.3        1 UNL1     -0.5058
     27 O         1.15521   -1.351879   1.84061 O.3        1 UNL1     -0.3648
     28 O         0.024118   -1.302098   -1.585807 O.3        1 UNL1     -0.3841
     29 O         -2.243314   -0.381365   1.033707 O.3        1 UNL1     -0.3863
     30 O         -2.016322   -3.482196   -0.924209 O.3        1 UNL1     -0.3829
     31 H         1.581846   -2.143559   0.060381 H        1 UNL1     0.0937
     32 H         0.0   0.0   0.0 H        1 UNL1     0.0671
     33 H         -2.267587   -0.986794   -0.894144 H        1 UNL1     0.0649
     34 H         -3.134736   -2.808243   0.659102 H        1 UNL1     0.0683
     35 H         -1.429389   -4.444662   1.313453 H        1 UNL1     0.1085
     36 H         -2.131066   -5.550781   2.917171 H        1 UNL1     0.0691
     37 H         -0.02936   -2.289108   4.807811 H        1 UNL1     0.0691
     38 H         1.977003   -5.883627   7.42058 H        1 UNL1     0.0385
     39 H         1.017751   -6.366306   8.833165 H        1 UNL1     0.0385
     40 H         1.466022   -3.885142   8.722607 H        1 UNL1     0.0789
     41 H         -1.51457   -2.71141   7.615523 H        1 UNL1     0.0623
     42 H         -3.503729   -2.291708   9.004506 H        1 UNL1     0.0654
     43 H         -2.048505   -5.062406   11.946434 H        1 UNL1     0.0654
     44 H         -0.092328   -5.525099   10.580694 H        1 UNL1     0.0623
     45 H         -3.98143   -2.396184   11.520902 H        1 UNL1     0.2921
     46 H         -0.964676   -7.861965   4.850383 H        1 UNL1     0.2922
     47 H         1.612758   -0.526673   1.627198 H        1 UNL1     0.2126
     48 H         0.960998   -1.071727   -1.737188 H        1 UNL1     0.2101
     49 H         -2.236268   0.529879   0.699972 H        1 UNL1     0.2100
     50 H         -2.714438   -3.150721   -1.526264 H        1 UNL1     0.2102
@<TRIPOS>BOND
     1     1     2    1
     2     1     6    1
     3     2     3    1
     4     3     4    1
     5     3    29    1
     6     3    33    1
     7     4     5    1
     8     5     6    1
     9     5     7    1
    10     5    35    1
    11     7     8    1
    12     8     9   ar
    13     8    13   ar
    14     9    10   ar
    15     9    36    1
    16    10    11   ar
    17    10    26    1
    18    11    12   ar
    19    11    14    1
    20    12    13   ar
    21    12    17    1
    22    13    37    1
    23    14    15    1
    24    14    25    2
    25    15    16    1
    26    15    38    1
    27    15    39    1
    28    16    17    1
    29    16    18    1
    30    16    40    1
    31    18    19   ar
    32    18    23   ar
    33    19    20   ar
    34    19    41    1
    35    20    21   ar
    36    20    42    1
    37    21    22   ar
    38    21    24    1
    39    22    23   ar
    40    22    43    1
    41    23    44    1
    42    24    45    1
    43    26    46    1
    44    27    47    1
    45    28    48    1
    46    29    49    1
    47    30    50    1
    48     1    31    1
    49     1    27    1
    50     2    32    1
    51     2    28    1
    52     4    34    1
    53     4    30    1
