@<TRIPOS>MOLECULE
*****
 50 53 0 0 0
SMALL
GASTEIGER

@<TRIPOS>ATOM
     1 C         -0.338615   -1.333288   1.69661 C.3        1 UNL1     0.1889
     2 C         -0.463763   -0.975677   0.191156 C.3        1 UNL1     0.1342
     3 C         -1.90278   -0.960534   -0.346863 C.3        1 UNL1     0.1174
     4 C         -2.792012   -2.021205   0.306867 C.3        1 UNL1     0.1456
     5 C         -2.645587   -2.051319   1.83919 C.3        1 UNL1     0.2326
     6 O         -1.282025   -2.271386   2.192941 O.3        1 UNL1     -0.3076
     7 O         -3.221946   -0.905877   2.492714 O.3        1 UNL1     -0.4605
     8 C         -3.736317   -1.124916   3.758009 C.ar        1 UNL1     0.1310
     9 C         -4.554766   -2.198458   4.125366 C.ar        1 UNL1     0.0226
     10 C         -5.012504   -2.342625   5.440506 C.ar        1 UNL1     0.1343
     11 C         -4.643009   -1.428823   6.426548 C.ar        1 UNL1     0.1007
     12 C         -3.859749   -0.330168   6.062891 C.ar        1 UNL1     0.1389
     13 C         -3.401799   -0.183993   4.739885 C.ar        1 UNL1     0.0229
     14 C         -5.028828   -1.578827   7.848799 C.2        1 UNL1     0.1740
     15 C         -4.362583   -0.634056   8.805394 C.3        1 UNL1     0.0520
     16 C         -4.28997   0.739919   8.153567 C.3        1 UNL1     0.1322
     17 O         -3.52708   0.686353   6.927924 O.3        1 UNL1     -0.4828
     18 C         -5.648265   1.43372   8.025508 C.ar        1 UNL1     -0.0067
     19 C         -6.021388   2.003129   6.790693 C.ar        1 UNL1     -0.0516
     20 C         -7.235663   2.686017   6.652261 C.ar        1 UNL1     -0.0198
     21 C         -8.08029   2.81245   7.740585 C.ar        1 UNL1     0.1169
     22 C         -7.75589   2.233756   8.960714 C.ar        1 UNL1     -0.0198
     23 C         -6.550145   1.534945   9.094507 C.ar        1 UNL1     -0.0516
     24 O         -9.236869   3.516907   7.577906 O.3        1 UNL1     -0.5068
     25 O         -5.779711   -2.461257   8.256201 O.2        1 UNL1     -0.2917
     26 O         -5.808642   -3.411286   5.733279 O.3        1 UNL1     -0.5058
     27 O         -0.235372   -0.197707   2.540757 O.3        1 UNL1     -0.3648
     28 O         0.268672   -1.952279   -0.572055 O.3        1 UNL1     -0.3841
     29 O         -2.459582   0.353229   -0.26857 O.3        1 UNL1     -0.3863
     30 O         -2.443587   -3.320641   -0.218258 O.3        1 UNL1     -0.3829
     31 H         0.621295   -1.847176   1.817321 H        1 UNL1     0.0937
     32 H         0.0   0.0   0.0 H        1 UNL1     0.0671
     33 H         -1.862315   -1.196835   -1.419358 H        1 UNL1     0.0649
     34 H         -3.841141   -1.841362   0.047281 H        1 UNL1     0.0683
     35 H         -3.20194   -2.947731   2.140513 H        1 UNL1     0.1085
     36 H         -4.831286   -2.972743   3.418162 H        1 UNL1     0.0691
     37 H         -2.794205   0.680811   4.482134 H        1 UNL1     0.0691
     38 H         -3.361258   -1.025576   9.014166 H        1 UNL1     0.0385
     39 H         -4.926055   -0.617536   9.744545 H        1 UNL1     0.0385
     40 H         -3.696914   1.38259   8.818231 H        1 UNL1     0.0789
     41 H         -5.371686   1.925533   5.923793 H        1 UNL1     0.0623
     42 H         -7.506661   3.130974   5.698016 H        1 UNL1     0.0654
     43 H         -8.416937   2.313799   9.815419 H        1 UNL1     0.0654
     44 H         -6.333631   1.086482   10.059311 H        1 UNL1     0.0623
     45 H         -9.009039   4.427145   7.32835 H        1 UNL1     0.2921
     46 H         -5.408374   -3.9256   6.452082 H        1 UNL1     0.2922
     47 H         0.507227   0.357784   2.265373 H        1 UNL1     0.2126
     48 H         1.203474   -1.876236   -0.299848 H        1 UNL1     0.2101
     49 H         -2.018285   0.937202   -0.905772 H        1 UNL1     0.2100
     50 H         -2.673642   -3.332629   -1.170436 H        1 UNL1     0.2102
@<TRIPOS>BOND
     1     1     2    1
     2     1     6    1
     3     2     3    1
     4     3     4    1
     5     3    29    1
     6     3    33    1
     7     4     5    1
     8     5     6    1
     9     5     7    1
    10     5    35    1
    11     7     8    1
    12     8     9   ar
    13     8    13   ar
    14     9    10   ar
    15     9    36    1
    16    10    11   ar
    17    10    26    1
    18    11    12   ar
    19    11    14    1
    20    12    13   ar
    21    12    17    1
    22    13    37    1
    23    14    15    1
    24    14    25    2
    25    15    16    1
    26    15    38    1
    27    15    39    1
    28    16    17    1
    29    16    18    1
    30    16    40    1
    31    18    19   ar
    32    18    23   ar
    33    19    20   ar
    34    19    41    1
    35    20    21   ar
    36    20    42    1
    37    21    22   ar
    38    21    24    1
    39    22    23   ar
    40    22    43    1
    41    23    44    1
    42    24    45    1
    43    26    46    1
    44    27    47    1
    45    28    48    1
    46    29    49    1
    47    30    50    1
    48     1    31    1
    49     1    27    1
    50     2    32    1
    51     2    28    1
    52     4    34    1
    53     4    30    1
