@<TRIPOS>MOLECULE
*****
 50 53 0 0 0
SMALL
GASTEIGER

@<TRIPOS>ATOM
     1 C         1.120166   0.394761   1.833083 C.3        1 UNL1     0.1889
     2 C         -0.193687   0.391905   1.00621 C.3        1 UNL1     0.1342
     3 C         -0.879367   1.76162   0.887087 C.3        1 UNL1     0.1174
     4 C         -0.721246   2.616084   2.147248 C.3        1 UNL1     0.1456
     5 C         0.725686   2.630096   2.673132 C.3        1 UNL1     0.2326
     6 O         1.162958   1.29727   2.928548 O.3        1 UNL1     -0.3076
     7 O         1.632127   3.372669   1.837507 O.3        1 UNL1     -0.4605
     8 C         1.238697   4.65732   1.508246 C.ar        1 UNL1     0.1310
     9 C         0.516453   5.015656   0.364892 C.ar        1 UNL1     0.0226
     10 C         0.14933   6.345707   0.128067 C.ar        1 UNL1     0.1343
     11 C         0.475295   7.347135   1.041702 C.ar        1 UNL1     0.1007
     12 C         1.231802   7.008025   2.16664 C.ar        1 UNL1     0.1389
     13 C         1.603098   5.671012   2.40321 C.ar        1 UNL1     0.0229
     14 C         0.040525   8.75428   0.883359 C.2        1 UNL1     0.1740
     15 C         0.286227   9.646577   2.064454 C.3        1 UNL1     0.0520
     16 C         1.651387   9.308808   2.647727 C.3        1 UNL1     0.1322
     17 O         1.69962   7.929479   3.07457 O.3        1 UNL1     -0.4828
     18 C         2.823386   9.740392   1.762923 C.ar        1 UNL1     -0.0067
     19 C         2.567629   10.456101   0.575252 C.ar        1 UNL1     -0.0516
     20 C         3.612549   10.824642   -0.280483 C.ar        1 UNL1     -0.0198
     21 C         4.913884   10.477795   0.035823 C.ar        1 UNL1     0.1169
     22 C         5.200908   9.802395   1.214929 C.ar        1 UNL1     -0.0198
     23 C         4.158099   9.449866   2.079989 C.ar        1 UNL1     -0.0516
     24 O         5.901323   10.820693   -0.840412 O.3        1 UNL1     -0.5068
     25 O         -0.556363   9.170232   -0.106183 O.2        1 UNL1     -0.2917
     26 O         -0.553503   6.629   -1.00655 O.3        1 UNL1     -0.5058
     27 O         2.290015   0.483521   1.03536 O.3        1 UNL1     -0.3648
     28 O         -1.128702   -0.501664   1.638655 O.3        1 UNL1     -0.3841
     29 O         -0.456081   2.439218   -0.297743 O.3        1 UNL1     -0.3863
     30 O         -1.586069   2.098978   3.181837 O.3        1 UNL1     -0.3829
     31 H         1.192376   -0.58927   2.309053 H        1 UNL1     0.0937
     32 H         0.0   0.0   -0.0 H        1 UNL1     0.0671
     33 H         -1.956258   1.587142   0.754481 H        1 UNL1     0.0649
     34 H         -1.042495   3.643838   1.944958 H        1 UNL1     0.0683
     35 H         0.648853   3.13244   3.645565 H        1 UNL1     0.1085
     36 H         0.184704   4.275687   -0.355184 H        1 UNL1     0.0691
     37 H         2.192937   5.433277   3.285857 H        1 UNL1     0.0691
     38 H         -0.511112   9.46027   2.791823 H        1 UNL1     0.0385
     39 H         0.219855   10.692028   1.744446 H        1 UNL1     0.0385
     40 H         1.759181   9.887174   3.575301 H        1 UNL1     0.0789
     41 H         1.55392   10.732266   0.299973 H        1 UNL1     0.0623
     42 H         3.40125   11.365999   -1.199339 H        1 UNL1     0.0654
     43 H         6.217961   9.539012   1.479773 H        1 UNL1     0.0654
     44 H         4.41979   8.931993   2.997688 H        1 UNL1     0.0623
     45 H         5.734674   10.367711   -1.68288 H        1 UNL1     0.2921
     46 H         -1.201403   7.326746   -0.820033 H        1 UNL1     0.2922
     47 H         3.001125   0.913562   1.530585 H        1 UNL1     0.2126
     48 H         -0.789281   -1.406598   1.498579 H        1 UNL1     0.2101
     49 H         -0.110279   1.798041   -0.93892 H        1 UNL1     0.2100
     50 H         -2.137632   1.391558   2.788075 H        1 UNL1     0.2102
@<TRIPOS>BOND
     1     1     2    1
     2     1     6    1
     3     2     3    1
     4     3     4    1
     5     3    29    1
     6     3    33    1
     7     4     5    1
     8     5     6    1
     9     5     7    1
    10     5    35    1
    11     7     8    1
    12     8     9   ar
    13     8    13   ar
    14     9    10   ar
    15     9    36    1
    16    10    11   ar
    17    10    26    1
    18    11    12   ar
    19    11    14    1
    20    12    13   ar
    21    12    17    1
    22    13    37    1
    23    14    15    1
    24    14    25    2
    25    15    16    1
    26    15    38    1
    27    15    39    1
    28    16    17    1
    29    16    18    1
    30    16    40    1
    31    18    19   ar
    32    18    23   ar
    33    19    20   ar
    34    19    41    1
    35    20    21   ar
    36    20    42    1
    37    21    22   ar
    38    21    24    1
    39    22    23   ar
    40    22    43    1
    41    23    44    1
    42    24    45    1
    43    26    46    1
    44    27    47    1
    45    28    48    1
    46    29    49    1
    47    30    50    1
    48     1    31    1
    49     1    27    1
    50     2    32    1
    51     2    28    1
    52     4    34    1
    53     4    30    1
