@<TRIPOS>MOLECULE
*****
 50 53 0 0 0
SMALL
GASTEIGER

@<TRIPOS>ATOM
     1 C         -0.33892   -1.333153   1.696656 C.3        1 UNL1     0.1889
     2 C         -0.465771   -0.974641   0.191559 C.3        1 UNL1     0.1342
     3 C         -1.905661   -0.955839   -0.344006 C.3        1 UNL1     0.1174
     4 C         -2.796316   -2.014641   0.310816 C.3        1 UNL1     0.1456
     5 C         -2.647358   -2.045718   1.842876 C.3        1 UNL1     0.2326
     6 O         -1.283728   -2.269189   2.194219 O.3        1 UNL1     -0.3076
     7 O         -3.219862   -0.899161   2.497833 O.3        1 UNL1     -0.4605
     8 C         -3.73271   -1.117501   3.763867 C.ar        1 UNL1     0.1310
     9 C         -4.553175   -2.189206   4.132087 C.ar        1 UNL1     0.0226
     10 C         -5.009128   -2.332835   5.447906 C.ar        1 UNL1     0.1343
     11 C         -4.635805   -1.420367   6.433743 C.ar        1 UNL1     0.1007
     12 C         -3.850462   -0.323465   6.069292 C.ar        1 UNL1     0.1389
     13 C         -3.394306   -0.177826   4.745607 C.ar        1 UNL1     0.0229
     14 C         -5.019679   -1.570054   7.856554 C.2        1 UNL1     0.1740
     15 C         -4.349581   -0.627328   8.812475 C.3        1 UNL1     0.0520
     16 C         -4.274678   0.746751   8.161127 C.3        1 UNL1     0.1322
     17 O         -3.513912   0.691864   6.934224 O.3        1 UNL1     -0.4828
     18 C         -5.631484   1.443916   8.035577 C.ar        1 UNL1     -0.0067
     19 C         -6.005223   2.014773   6.801618 C.ar        1 UNL1     -0.0516
     20 C         -7.218053   2.700678   6.665456 C.ar        1 UNL1     -0.0198
     21 C         -8.060601   2.828692   7.755205 C.ar        1 UNL1     0.1169
     22 C         -7.735632   2.248674   8.974554 C.ar        1 UNL1     -0.0198
     23 C         -6.531378   1.54687   9.106084 C.ar        1 UNL1     -0.0516
     24 O         -9.215723   3.536036   7.594711 O.3        1 UNL1     -0.5068
     25 O         -5.772048   -2.45083   8.264792 O.2        1 UNL1     -0.2917
     26 O         -5.80739   -3.39968   5.741508 O.3        1 UNL1     -0.5058
     27 O         -0.231525   -0.198159   2.541075 O.3        1 UNL1     -0.3648
     28 O         0.263026   -1.952688   -0.573284 O.3        1 UNL1     -0.3841
     29 O         -2.459183   0.359221   -0.264245 O.3        1 UNL1     -0.3863
     30 O         -2.451895   -3.314697   -0.215415 O.3        1 UNL1     -0.3829
     31 H         0.619961   -1.849385   1.81553 H        1 UNL1     0.0937
     32 H         0.0   0.0   0.0 H        1 UNL1     0.0671
     33 H         -1.867585   -1.191807   -1.416661 H        1 UNL1     0.0649
     34 H         -3.845451   -1.832184   0.053086 H        1 UNL1     0.0683
     35 H         -3.205343   -2.940917   2.14479 H        1 UNL1     0.1085
     36 H         -4.83273   -2.962506   3.424997 H        1 UNL1     0.0691
     37 H         -2.785026   0.685608   4.487243 H        1 UNL1     0.0691
     38 H         -3.348875   -1.021378   9.01945 H        1 UNL1     0.0385
     39 H         -4.911485   -0.609847   9.752548 H        1 UNL1     0.0385
     40 H         -3.67898   1.387684   8.825106 H        1 UNL1     0.0789
     41 H         -5.357121   1.935974   5.933629 H        1 UNL1     0.0623
     42 H         -7.489515   3.146712   5.711845 H        1 UNL1     0.0654
     43 H         -8.395094   2.329953   9.830366 H        1 UNL1     0.0654
     44 H         -6.314391   1.097457   10.07034 H        1 UNL1     0.0623
     45 H         -8.986014   4.446552   7.347911 H        1 UNL1     0.2921
     46 H         -5.407211   -3.915283   6.459437 H        1 UNL1     0.2922
     47 H         0.511932   0.355663   2.264649 H        1 UNL1     0.2126
     48 H         1.198468   -1.87899   -0.302638 H        1 UNL1     0.2101
     49 H         -2.017573   0.942391   -0.901966 H        1 UNL1     0.2100
     50 H         -2.688824   -3.327669   -1.165894 H        1 UNL1     0.2102
@<TRIPOS>BOND
     1     1     2    1
     2     1     6    1
     3     2     3    1
     4     3     4    1
     5     3    29    1
     6     3    33    1
     7     4     5    1
     8     5     6    1
     9     5     7    1
    10     5    35    1
    11     7     8    1
    12     8     9   ar
    13     8    13   ar
    14     9    10   ar
    15     9    36    1
    16    10    11   ar
    17    10    26    1
    18    11    12   ar
    19    11    14    1
    20    12    13   ar
    21    12    17    1
    22    13    37    1
    23    14    15    1
    24    14    25    2
    25    15    16    1
    26    15    38    1
    27    15    39    1
    28    16    17    1
    29    16    18    1
    30    16    40    1
    31    18    19   ar
    32    18    23   ar
    33    19    20   ar
    34    19    41    1
    35    20    21   ar
    36    20    42    1
    37    21    22   ar
    38    21    24    1
    39    22    23   ar
    40    22    43    1
    41    23    44    1
    42    24    45    1
    43    26    46    1
    44    27    47    1
    45    28    48    1
    46    29    49    1
    47    30    50    1
    48     1    31    1
    49     1    27    1
    50     2    32    1
    51     2    28    1
    52     4    34    1
    53     4    30    1
