@<TRIPOS>MOLECULE
*****
 50 53 0 0 0
SMALL
GASTEIGER

@<TRIPOS>ATOM
     1 C         -0.683987   -1.033212   1.798732 C.3        1 UNL1     0.1889
     2 C         -0.547775   -0.915173   0.256833 C.3        1 UNL1     0.1342
     3 C         -1.88022   -0.932938   -0.507849 C.3        1 UNL1     0.1174
     4 C         -2.925517   -1.842791   0.14226 C.3        1 UNL1     0.1456
     5 C         -3.024662   -1.634232   1.664441 C.3        1 UNL1     0.2326
     6 O         -1.750253   -1.845173   2.267978 O.3        1 UNL1     -0.3076
     7 O         -3.624598   -0.379067   2.033166 O.3        1 UNL1     -0.4605
     8 C         -4.344616   -0.375095   3.214303 C.ar        1 UNL1     0.1310
     9 C         -5.275804   -1.345779   3.598962 C.ar        1 UNL1     0.0226
     10 C         -5.943217   -1.262093   4.826748 C.ar        1 UNL1     0.1343
     11 C         -5.677783   -0.217324   5.710966 C.ar        1 UNL1     0.1007
     12 C         -4.7803   0.780018   5.320304 C.ar        1 UNL1     0.1389
     13 C         -4.111314   0.697054   4.084583 C.ar        1 UNL1     0.0229
     14 C         -6.291567   -0.125004   7.05592 C.2        1 UNL1     0.1740
     15 C         -5.727109   0.934739   7.955854 C.3        1 UNL1     0.0520
     16 C         -5.467469   2.183985   7.125234 C.3        1 UNL1     0.1322
     17 O         -4.525704   1.908241   6.064992 O.3        1 UNL1     -0.4828
     18 C         -6.742854   2.898002   6.671036 C.ar        1 UNL1     -0.0067
     19 C         -6.881741   3.274642   5.319346 C.ar        1 UNL1     -0.0516
     20 C         -8.014227   3.970886   4.880389 C.ar        1 UNL1     -0.0198
     21 C         -9.009179   4.302097   5.782717 C.ar        1 UNL1     0.1169
     22 C         -8.916602   3.915742   7.113505 C.ar        1 UNL1     -0.0198
     23 C         -7.792795   3.203364   7.548973 C.ar        1 UNL1     -0.0516
     24 O         -10.079651   5.013571   5.326322 O.3        1 UNL1     -0.5068
     25 O         -7.150613   -0.903253   7.461941 O.2        1 UNL1     -0.2917
     26 O         -6.840354   -2.24064   5.141669 O.3        1 UNL1     -0.5058
     27 O         -0.644815   0.217578   2.467145 O.3        1 UNL1     -0.3648
     28 O         0.233758   -2.026934   -0.218457 O.3        1 UNL1     -0.3841
     29 O         -2.359742   0.396109   -0.721916 O.3        1 UNL1     -0.3863
     30 O         -2.580023   -3.2211   -0.11579 O.3        1 UNL1     -0.3829
     31 H         0.211103   -1.556267   2.152718 H        1 UNL1     0.0937
     32 H         0.0   0.0   -0.0 H        1 UNL1     0.0671
     33 H         -1.685925   -1.338089   -1.510756 H        1 UNL1     0.0649
     34 H         -3.907383   -1.668109   -0.31142 H        1 UNL1     0.0683
     35 H         -3.676135   -2.450286   2.001365 H        1 UNL1     0.1085
     36 H         -5.484905   -2.21198   2.980825 H        1 UNL1     0.0691
     37 H         -3.418173   1.48697   3.80337 H        1 UNL1     0.0691
     38 H         -4.797487   0.544894   8.384047 H        1 UNL1     0.0385
     39 H         -6.429472   1.121058   8.775457 H        1 UNL1     0.0385
     40 H         -4.947875   2.901948   7.774134 H        1 UNL1     0.0789
     41 H         -6.110521   3.034469   4.59327 H        1 UNL1     0.0623
     42 H         -8.10415   4.266163   3.837922 H        1 UNL1     0.0654
     43 H         -9.696944   4.156786   7.825457 H        1 UNL1     0.0654
     44 H         -7.758447   2.908348   8.593306 H        1 UNL1     0.0623
     45 H         -9.758413   5.86035   4.976337 H        1 UNL1     0.2921
     46 H         -6.59035   -2.649405   5.985364 H        1 UNL1     0.2922
     47 H         0.166259   0.693376   2.239912 H        1 UNL1     0.2126
     48 H         1.111429   -1.952452   0.2033 H        1 UNL1     0.2101
     49 H         -1.788006   0.854788   -1.357939 H        1 UNL1     0.2100
     50 H         -2.657378   -3.37588   -1.080037 H        1 UNL1     0.2102
@<TRIPOS>BOND
     1     1     2    1
     2     1     6    1
     3     2     3    1
     4     3     4    1
     5     3    29    1
     6     3    33    1
     7     4     5    1
     8     5     6    1
     9     5     7    1
    10     5    35    1
    11     7     8    1
    12     8     9   ar
    13     8    13   ar
    14     9    10   ar
    15     9    36    1
    16    10    11   ar
    17    10    26    1
    18    11    12   ar
    19    11    14    1
    20    12    13   ar
    21    12    17    1
    22    13    37    1
    23    14    15    1
    24    14    25    2
    25    15    16    1
    26    15    38    1
    27    15    39    1
    28    16    17    1
    29    16    18    1
    30    16    40    1
    31    18    19   ar
    32    18    23   ar
    33    19    20   ar
    34    19    41    1
    35    20    21   ar
    36    20    42    1
    37    21    22   ar
    38    21    24    1
    39    22    23   ar
    40    22    43    1
    41    23    44    1
    42    24    45    1
    43    26    46    1
    44    27    47    1
    45    28    48    1
    46    29    49    1
    47    30    50    1
    48     1    31    1
    49     1    27    1
    50     2    32    1
    51     2    28    1
    52     4    34    1
    53     4    30    1
