@<TRIPOS>MOLECULE
*****
 50 53 0 0 0
SMALL
GASTEIGER

@<TRIPOS>ATOM
     1 C         0.077733   -1.746412   1.309506 C.3        1 UNL1     0.1889
     2 C         -0.390326   -1.025143   0.016977 C.3        1 UNL1     0.1342
     3 C         -1.913622   -0.984649   -0.178972 C.3        1 UNL1     0.1174
     4 C         -2.612488   -2.243621   0.340348 C.3        1 UNL1     0.1456
     5 C         -2.12379   -2.654643   1.741277 C.3        1 UNL1     0.2326
     6 O         -0.711697   -2.851119   1.725219 O.3        1 UNL1     -0.3076
     7 O         -2.559344   -1.763957   2.78449 O.3        1 UNL1     -0.4605
     8 C         -1.559679   -1.199287   3.556076 C.ar        1 UNL1     0.1310
     9 C         -1.727135   -0.67554   4.842524 C.ar        1 UNL1     0.0226
     10 C         -0.646015   -0.13898   5.55188 C.ar        1 UNL1     0.1343
     11 C         0.63467   -0.134816   5.00082 C.ar        1 UNL1     0.1007
     12 C         0.806766   -0.617615   3.700792 C.ar        1 UNL1     0.1389
     13 C         -0.280946   -1.154654   2.986717 C.ar        1 UNL1     0.0229
     14 C         1.827172   0.342774   5.738384 C.2        1 UNL1     0.1740
     15 C         3.148823   0.068945   5.082788 C.3        1 UNL1     0.0520
     16 C         3.00371   0.310554   3.586618 C.3        1 UNL1     0.1322
     17 O         2.0014   -0.562679   3.021014 O.3        1 UNL1     -0.4828
     18 C         2.842929   1.786245   3.213508 C.ar        1 UNL1     -0.0067
     19 C         3.745017   2.735178   3.736937 C.ar        1 UNL1     -0.0516
     20 C         3.598038   4.098363   3.45394 C.ar        1 UNL1     -0.0198
     21 C         2.551146   4.525145   2.656631 C.ar        1 UNL1     0.1169
     22 C         1.666265   3.611264   2.099274 C.ar        1 UNL1     -0.0198
     23 C         1.823896   2.246168   2.367082 C.ar        1 UNL1     -0.0516
     24 O         2.417668   5.864141   2.433755 O.3        1 UNL1     -0.5068
     25 O         1.771813   0.859076   6.851421 O.2        1 UNL1     -0.2917
     26 O         -0.876565   0.35691   6.80189 O.3        1 UNL1     -0.5058
     27 O         0.347324   -0.861165   2.384888 O.3        1 UNL1     -0.3648
     28 O         0.169356   -1.712846   -1.117275 O.3        1 UNL1     -0.3841
     29 O         -2.462984   0.217403   0.364539 O.3        1 UNL1     -0.3863
     30 O         -2.367117   -3.333397   -0.575005 O.3        1 UNL1     -0.3829
     31 H         1.049612   -2.197581   1.081518 H        1 UNL1     0.0937
     32 H         0.0   0.0   0.0 H        1 UNL1     0.0671
     33 H         -2.111594   -0.933759   -1.258757 H        1 UNL1     0.0649
     34 H         -3.696316   -2.085548   0.367352 H        1 UNL1     0.0683
     35 H         -2.580954   -3.638936   1.902671 H        1 UNL1     0.1085
     36 H         -2.686348   -0.70041   5.347906 H        1 UNL1     0.0691
     37 H         -0.120852   -1.523126   1.975731 H        1 UNL1     0.0691
     38 H         3.411995   -0.973647   5.2908 H        1 UNL1     0.0385
     39 H         3.913057   0.711131   5.533699 H        1 UNL1     0.0385
     40 H         3.9431   -0.007816   3.114699 H        1 UNL1     0.0789
     41 H         4.56964   2.426537   4.372853 H        1 UNL1     0.0623
     42 H         4.293167   4.821556   3.873224 H        1 UNL1     0.0654
     43 H         0.851834   3.933149   1.461307 H        1 UNL1     0.0654
     44 H         1.120539   1.559201   1.90642 H        1 UNL1     0.0623
     45 H         3.153334   6.32268   2.871082 H        1 UNL1     0.2921
     46 H         -1.45767   -0.249063   7.288229 H        1 UNL1     0.2922
     47 H         1.19385   -0.413925   2.246218 H        1 UNL1     0.2126
     48 H         0.780415   -1.086315   -1.550631 H        1 UNL1     0.2101
     49 H         -2.82202   0.045463   1.249595 H        1 UNL1     0.2100
     50 H         -1.398353   -3.46787   -0.63092 H        1 UNL1     0.2102
@<TRIPOS>BOND
     1     1     2    1
     2     1     6    1
     3     2     3    1
     4     3     4    1
     5     3    29    1
     6     3    33    1
     7     4     5    1
     8     5     6    1
     9     5     7    1
    10     5    35    1
    11     7     8    1
    12     8     9   ar
    13     8    13   ar
    14     9    10   ar
    15     9    36    1
    16    10    11   ar
    17    10    26    1
    18    11    12   ar
    19    11    14    1
    20    12    13   ar
    21    12    17    1
    22    13    37    1
    23    14    15    1
    24    14    25    2
    25    15    16    1
    26    15    38    1
    27    15    39    1
    28    16    17    1
    29    16    18    1
    30    16    40    1
    31    18    19   ar
    32    18    23   ar
    33    19    20   ar
    34    19    41    1
    35    20    21   ar
    36    20    42    1
    37    21    22   ar
    38    21    24    1
    39    22    23   ar
    40    22    43    1
    41    23    44    1
    42    24    45    1
    43    26    46    1
    44    27    47    1
    45    28    48    1
    46    29    49    1
    47    30    50    1
    48     1    31    1
    49     1    27    1
    50     2    32    1
    51     2    28    1
    52     4    34    1
    53     4    30    1
