@<TRIPOS>MOLECULE
*****
 50 53 0 0 0
SMALL
GASTEIGER

@<TRIPOS>ATOM
     1 C         0.046131   -1.646353   -1.434643 C.3        1 UNL1     0.1889
     2 C         0.231405   -1.072379   -0.004199 C.3        1 UNL1     0.1342
     3 C         1.629415   -1.285697   0.59624 C.3        1 UNL1     0.1174
     4 C         2.261238   -2.61381   0.171938 C.3        1 UNL1     0.1456
     5 C         2.130227   -2.873379   -1.339957 C.3        1 UNL1     0.2326
     6 O         0.756753   -2.841854   -1.721326 O.3        1 UNL1     -0.3076
     7 O         2.960332   -2.014704   -2.143029 O.3        1 UNL1     -0.4605
     8 C         2.652858   -1.961794   -3.490689 C.ar        1 UNL1     0.1310
     9 C         3.574433   -2.075203   -4.537177 C.ar        1 UNL1     0.0226
     10 C         3.161298   -2.025952   -5.873888 C.ar        1 UNL1     0.1343
     11 C         1.812254   -1.885829   -6.196824 C.ar        1 UNL1     0.1007
     12 C         0.887462   -1.730428   -5.160776 C.ar        1 UNL1     0.1389
     13 C         1.303441   -1.777331   -3.81683 C.ar        1 UNL1     0.0229
     14 C         1.310889   -1.911801   -7.590421 C.2        1 UNL1     0.1740
     15 C         -0.180616   -1.972937   -7.742812 C.3        1 UNL1     0.0520
     16 C         -0.8093   -1.058497   -6.700453 C.3        1 UNL1     0.1322
     17 O         -0.44921   -1.478432   -5.365889 O.3        1 UNL1     -0.4828
     18 C         -0.592735   0.431286   -6.976805 C.ar        1 UNL1     -0.0067
     19 C         -1.709691   1.267236   -7.181278 C.ar        1 UNL1     -0.0516
     20 C         -1.545508   2.624427   -7.483005 C.ar        1 UNL1     -0.0198
     21 C         -0.272338   3.154902   -7.590061 C.ar        1 UNL1     0.1169
     22 C         0.846514   2.364554   -7.361242 C.ar        1 UNL1     -0.0198
     23 C         0.682244   1.011509   -7.041332 C.ar        1 UNL1     -0.0516
     24 O         -0.150953   4.472117   -7.922645 O.3        1 UNL1     -0.5068
     25 O         2.046408   -1.962302   -8.572737 O.2        1 UNL1     -0.2917
     26 O         4.110278   -2.141462   -6.847376 O.3        1 UNL1     -0.5058
     27 O         0.21462   -0.678631   -2.458319 O.3        1 UNL1     -0.3648
     28 O         -0.713485   -1.715442   0.871219 O.3        1 UNL1     -0.3841
     29 O         2.471936   -0.162311   0.331107 O.3        1 UNL1     -0.3863
     30 O         1.619489   -3.693058   0.885431 O.3        1 UNL1     -0.3829
     31 H         -1.004128   -1.9466   -1.51763 H        1 UNL1     0.0937
     32 H         0.0   0.0   0.0 H        1 UNL1     0.0671
     33 H         1.523265   -1.3192   1.689551 H        1 UNL1     0.0649
     34 H         3.320545   -2.63013   0.45123 H        1 UNL1     0.0683
     35 H         2.471171   -3.909226   -1.461028 H        1 UNL1     0.1085
     36 H         4.629895   -2.241956   -4.351939 H        1 UNL1     0.0691
     37 H         0.56392   -1.652708   -3.028749 H        1 UNL1     0.0691
     38 H         -0.486621   -3.01358   -7.591316 H        1 UNL1     0.0385
     39 H         -0.449253   -1.682657   -8.764257 H        1 UNL1     0.0385
     40 H         -1.89622   -1.20853   -6.751588 H        1 UNL1     0.0789
     41 H         -2.71931   0.872906   -7.111828 H        1 UNL1     0.0623
     42 H         -2.414474   3.256053   -7.650219 H        1 UNL1     0.0654
     43 H         1.847769   2.773187   -7.427702 H        1 UNL1     0.0654
     44 H         1.578129   0.425989   -6.858568 H        1 UNL1     0.0623
     45 H         0.525803   4.871344   -7.352262 H        1 UNL1     0.2921
     46 H         4.26562   -1.273548   -7.252354 H        1 UNL1     0.2922
     47 H         1.110139   -0.313793   -2.430051 H        1 UNL1     0.2126
     48 H         -1.462713   -2.000244   0.313296 H        1 UNL1     0.2101
     49 H         2.757539   0.240471   1.166566 H        1 UNL1     0.2100
     50 H         1.002519   -4.13784   0.267994 H        1 UNL1     0.2102
@<TRIPOS>BOND
     1     1     2    1
     2     1     6    1
     3     2     3    1
     4     3     4    1
     5     3    29    1
     6     3    33    1
     7     4     5    1
     8     5     6    1
     9     5     7    1
    10     5    35    1
    11     7     8    1
    12     8     9   ar
    13     8    13   ar
    14     9    10   ar
    15     9    36    1
    16    10    11   ar
    17    10    26    1
    18    11    12   ar
    19    11    14    1
    20    12    13   ar
    21    12    17    1
    22    13    37    1
    23    14    15    1
    24    14    25    2
    25    15    16    1
    26    15    38    1
    27    15    39    1
    28    16    17    1
    29    16    18    1
    30    16    40    1
    31    18    19   ar
    32    18    23   ar
    33    19    20   ar
    34    19    41    1
    35    20    21   ar
    36    20    42    1
    37    21    22   ar
    38    21    24    1
    39    22    23   ar
    40    22    43    1
    41    23    44    1
    42    24    45    1
    43    26    46    1
    44    27    47    1
    45    28    48    1
    46    29    49    1
    47    30    50    1
    48     1    31    1
    49     1    27    1
    50     2    32    1
    51     2    28    1
    52     4    34    1
    53     4    30    1
