@<TRIPOS>MOLECULE
*****
 50 53 0 0 0
SMALL
GASTEIGER

@<TRIPOS>ATOM
     1 C         2.109927   -0.380489   -0.417423 C.3        1 UNL1     0.1889
     2 C         0.831943   -0.559406   0.44553 C.3        1 UNL1     0.1342
     3 C         0.987036   -0.140675   1.91559 C.3        1 UNL1     0.1174
     4 C         2.383102   -0.432163   2.471604 C.3        1 UNL1     0.1456
     5 C         3.504357   0.022261   1.519423 C.3        1 UNL1     0.2326
     6 O         3.344822   -0.602183   0.247618 O.3        1 UNL1     -0.3076
     7 O         3.63968   1.452577   1.434543 O.3        1 UNL1     -0.4605
     8 C         4.545998   1.921385   0.500554 C.ar        1 UNL1     0.1310
     9 C         5.73599   2.596097   0.793781 C.ar        1 UNL1     0.0226
     10 C         6.598974   3.017435   -0.224863 C.ar        1 UNL1     0.1343
     11 C         6.304206   2.752978   -1.561656 C.ar        1 UNL1     0.1007
     12 C         5.098888   2.116254   -1.869189 C.ar        1 UNL1     0.1389
     13 C         4.230059   1.695045   -0.844909 C.ar        1 UNL1     0.0229
     14 C         7.220312   3.101016   -2.672409 C.2        1 UNL1     0.1740
     15 C         6.850862   2.546298   -4.016783 C.3        1 UNL1     0.0520
     16 C         5.341218   2.652116   -4.183325 C.3        1 UNL1     0.1322
     17 O         4.658034   1.902455   -3.15457 O.3        1 UNL1     -0.4828
     18 C         4.840025   4.087358   -4.361114 C.ar        1 UNL1     -0.0067
     19 C         5.622788   5.009481   -5.085811 C.ar        1 UNL1     -0.0516
     20 C         5.216607   6.341802   -5.226883 C.ar        1 UNL1     -0.0198
     21 C         4.03604   6.765216   -4.643093 C.ar        1 UNL1     0.1169
     22 C         3.227108   5.872758   -3.951727 C.ar        1 UNL1     -0.0198
     23 C         3.623918   4.536034   -3.826167 C.ar        1 UNL1     -0.0516
     24 O         3.691696   8.07892   -4.769618 O.3        1 UNL1     -0.5068
     25 O         8.26252   3.731943   -2.516785 O.2        1 UNL1     -0.2917
     26 O         7.743212   3.671463   0.128057 O.3        1 UNL1     -0.5058
     27 O         2.125194   0.827421   -1.161404 O.3        1 UNL1     -0.3648
     28 O         0.464349   -1.95132   0.433078 O.3        1 UNL1     -0.3841
     29 O         0.590968   1.219969   2.099733 O.3        1 UNL1     -0.3863
     30 O         2.515156   -1.852076   2.699854 O.3        1 UNL1     -0.3829
     31 H         2.085047   -1.166577   -1.180001 H        1 UNL1     0.0937
     32 H         0.0   0.0   0.0 H        1 UNL1     0.0671
     33 H         0.278046   -0.733908   2.509836 H        1 UNL1     0.0649
     34 H         2.509992   0.061557   3.441419 H        1 UNL1     0.0683
     35 H         4.415927   -0.393448   1.966754 H        1 UNL1     0.1085
     36 H         6.049013   2.782442   1.815257 H        1 UNL1     0.0691
     37 H         3.297251   1.202403   -1.110744 H        1 UNL1     0.0691
     38 H         7.179151   1.501827   -4.045675 H        1 UNL1     0.0385
     39 H         7.392696   3.096754   -4.793438 H        1 UNL1     0.0385
     40 H         5.081628   2.135856   -5.11746 H        1 UNL1     0.0789
     41 H         6.5581   4.704087   -5.545785 H        1 UNL1     0.0623
     42 H         5.834829   7.046122   -5.778014 H        1 UNL1     0.0654
     43 H         2.29322   6.190214   -3.503413 H        1 UNL1     0.0654
     44 H         2.962299   3.863836   -3.288342 H        1 UNL1     0.0623
     45 H         4.490812   8.585906   -4.986633 H        1 UNL1     0.2921
     46 H         8.292735   3.089203   0.676153 H        1 UNL1     0.2922
     47 H         2.51551   1.539546   -0.635674 H        1 UNL1     0.2126
     48 H         0.205932   -2.180535   1.34654 H        1 UNL1     0.2101
     49 H         1.177382   1.805601   1.59481 H        1 UNL1     0.2100
     50 H         1.629648   -2.204704   2.92622 H        1 UNL1     0.2102
@<TRIPOS>BOND
     1     1     2    1
     2     1     6    1
     3     2     3    1
     4     3     4    1
     5     3    29    1
     6     3    33    1
     7     4     5    1
     8     5     6    1
     9     5     7    1
    10     5    35    1
    11     7     8    1
    12     8     9   ar
    13     8    13   ar
    14     9    10   ar
    15     9    36    1
    16    10    11   ar
    17    10    26    1
    18    11    12   ar
    19    11    14    1
    20    12    13   ar
    21    12    17    1
    22    13    37    1
    23    14    15    1
    24    14    25    2
    25    15    16    1
    26    15    38    1
    27    15    39    1
    28    16    17    1
    29    16    18    1
    30    16    40    1
    31    18    19   ar
    32    18    23   ar
    33    19    20   ar
    34    19    41    1
    35    20    21   ar
    36    20    42    1
    37    21    22   ar
    38    21    24    1
    39    22    23   ar
    40    22    43    1
    41    23    44    1
    42    24    45    1
    43    26    46    1
    44    27    47    1
    45    28    48    1
    46    29    49    1
    47    30    50    1
    48     1    31    1
    49     1    27    1
    50     2    32    1
    51     2    28    1
    52     4    34    1
    53     4    30    1
