@<TRIPOS>MOLECULE
*****
 50 53 0 0 0
SMALL
GASTEIGER

@<TRIPOS>ATOM
     1 C         -0.338535   -1.327653   1.70104 C.3        1 UNL1     0.1889
     2 C         -0.473494   -0.969932   0.196459 C.3        1 UNL1     0.1342
     3 C         -1.917195   -0.938196   -0.328123 C.3        1 UNL1     0.1174
     4 C         -2.812795   -1.987652   0.334945 C.3        1 UNL1     0.1456
     5 C         -2.652427   -2.018127   1.865866 C.3        1 UNL1     0.2326
     6 O         -1.288325   -2.254044   2.207097 O.3        1 UNL1     -0.3076
     7 O         -3.209031   -0.86534   2.523584 O.3        1 UNL1     -0.4605
     8 C         -3.720951   -1.078709   3.790841 C.ar        1 UNL1     0.1310
     9 C         -4.553416   -2.140689   4.160301 C.ar        1 UNL1     0.0226
     10 C         -5.007391   -2.280099   5.477257 C.ar        1 UNL1     0.1343
     11 C         -4.620176   -1.373285   6.462951 C.ar        1 UNL1     0.1007
     12 C         -3.822511   -0.285684   6.097384 C.ar        1 UNL1     0.1389
     13 C         -3.368329   -0.144258   4.772563 C.ar        1 UNL1     0.0229
     14 C         -5.001852   -1.519744   7.886688 C.2        1 UNL1     0.1740
     15 C         -4.317598   -0.58627   8.841659 C.3        1 UNL1     0.0520
     16 C         -4.227735   0.787466   8.19148 C.3        1 UNL1     0.1322
     17 O         -3.471147   0.724559   6.96238 O.3        1 UNL1     -0.4828
     18 C         -5.576265   1.501289   8.070458 C.ar        1 UNL1     -0.0067
     19 C         -5.939989   2.090895   6.842336 C.ar        1 UNL1     -0.0516
     20 C         -7.144649   2.791966   6.710969 C.ar        1 UNL1     -0.0198
     21 C         -7.988873   2.916529   7.799821 C.ar        1 UNL1     0.1169
     22 C         -7.673975   2.318486   9.01309 C.ar        1 UNL1     -0.0198
     23 C         -6.478056   1.601669   9.139613 C.ar        1 UNL1     -0.0516
     24 O         -9.135517   3.638675   7.644539 O.3        1 UNL1     -0.5068
     25 O         -5.76378   -2.391684   8.296165 O.2        1 UNL1     -0.2917
     26 O         -5.817807   -3.337414   5.77204 O.3        1 UNL1     -0.5058
     27 O         -0.213951   -0.19262   2.543041 O.3        1 UNL1     -0.3648
     28 O         0.240146   -1.955843   -0.572569 O.3        1 UNL1     -0.3841
     29 O         -2.457622   0.382152   -0.245961 O.3        1 UNL1     -0.3863
     30 O         -2.484725   -3.291602   -0.192098 O.3        1 UNL1     -0.3829
     31 H         0.616299   -1.852788   1.813305 H        1 UNL1     0.0937
     32 H         0.0   0.0   0.0 H        1 UNL1     0.0671
     33 H         -1.889557   -1.175922   -1.40071 H        1 UNL1     0.0649
     34 H         -3.862097   -1.795605   0.08498 H        1 UNL1     0.0683
     35 H         -3.216532   -2.907603   2.17327 H        1 UNL1     0.1085
     36 H         -4.844388   -2.909781   3.453227 H        1 UNL1     0.0691
     37 H         -2.749269   0.711933   4.513348 H        1 UNL1     0.0691
     38 H         -3.321205   -0.992733   9.045413 H        1 UNL1     0.0385
     39 H         -4.876602   -0.562898   9.783331 H        1 UNL1     0.0385
     40 H         -3.622383   1.420383   8.854418 H        1 UNL1     0.0789
     41 H         -5.290291   2.0151   5.975274 H        1 UNL1     0.0623
     42 H         -7.408318   3.252293   5.761975 H        1 UNL1     0.0654
     43 H         -8.334969   2.397033   9.867975 H        1 UNL1     0.0654
     44 H         -6.268927   1.138451   10.09906 H        1 UNL1     0.0623
     45 H         -8.894894   4.54941   7.409211 H        1 UNL1     0.2921
     46 H         -5.421859   -3.858711   6.488201 H        1 UNL1     0.2922
     47 H         0.531732   0.354489   2.259338 H        1 UNL1     0.2126
     48 H         1.178728   -1.888717   -0.311247 H        1 UNL1     0.2101
     49 H         -2.021192   0.958263   -0.893587 H        1 UNL1     0.2100
     50 H         -2.729027   -3.303578   -1.140721 H        1 UNL1     0.2102
@<TRIPOS>BOND
     1     1     2    1
     2     1     6    1
     3     2     3    1
     4     3     4    1
     5     3    29    1
     6     3    33    1
     7     4     5    1
     8     5     6    1
     9     5     7    1
    10     5    35    1
    11     7     8    1
    12     8     9   ar
    13     8    13   ar
    14     9    10   ar
    15     9    36    1
    16    10    11   ar
    17    10    26    1
    18    11    12   ar
    19    11    14    1
    20    12    13   ar
    21    12    17    1
    22    13    37    1
    23    14    15    1
    24    14    25    2
    25    15    16    1
    26    15    38    1
    27    15    39    1
    28    16    17    1
    29    16    18    1
    30    16    40    1
    31    18    19   ar
    32    18    23   ar
    33    19    20   ar
    34    19    41    1
    35    20    21   ar
    36    20    42    1
    37    21    22   ar
    38    21    24    1
    39    22    23   ar
    40    22    43    1
    41    23    44    1
    42    24    45    1
    43    26    46    1
    44    27    47    1
    45    28    48    1
    46    29    49    1
    47    30    50    1
    48     1    31    1
    49     1    27    1
    50     2    32    1
    51     2    28    1
    52     4    34    1
    53     4    30    1
