@<TRIPOS>MOLECULE
*****
 50 53 0 0 0
SMALL
GASTEIGER

@<TRIPOS>ATOM
     1 C         0.738886   -1.81409   0.966399 C.3        1 UNL1     0.1889
     2 C         -0.410529   -0.860566   0.542635 C.3        1 UNL1     0.1342
     3 C         -1.282544   -0.352849   1.701203 C.3        1 UNL1     0.1174
     4 C         -1.465533   -1.395097   2.807255 C.3        1 UNL1     0.1456
     5 C         -0.141007   -2.07084   3.206462 C.3        1 UNL1     0.2326
     6 O         0.46162   -2.67261   2.062967 O.3        1 UNL1     -0.3076
     7 O         0.752449   -1.201017   3.925118 O.3        1 UNL1     -0.4605
     8 C         2.065597   -1.625417   4.020264 C.ar        1 UNL1     0.1310
     9 C         2.828253   -1.644001   5.193001 C.ar        1 UNL1     0.0226
     10 C         4.148545   -2.109539   5.190402 C.ar        1 UNL1     0.1343
     11 C         4.730955   -2.590518   4.018523 C.ar        1 UNL1     0.1007
     12 C         3.993116   -2.538756   2.832902 C.ar        1 UNL1     0.1389
     13 C         2.666482   -2.068151   2.835257 C.ar        1 UNL1     0.0229
     14 C         6.092847   -3.171527   3.975742 C.2        1 UNL1     0.1740
     15 C         6.473004   -3.840904   2.687735 C.3        1 UNL1     0.0520
     16 C         5.94214   -3.001724   1.533647 C.3        1 UNL1     0.1322
     17 O         4.503877   -2.885161   1.603515 O.3        1 UNL1     -0.4828
     18 C         6.678077   -1.672451   1.348835 C.ar        1 UNL1     -0.0067
     19 C         7.353369   -1.417294   0.137601 C.ar        1 UNL1     -0.0516
     20 C         8.075614   -0.232174   -0.046291 C.ar        1 UNL1     -0.0198
     21 C         8.136206   0.70032   0.973813 C.ar        1 UNL1     0.1169
     22 C         7.454063   0.492607   2.165609 C.ar        1 UNL1     -0.0198
     23 C         6.716537   -0.68412   2.342876 C.ar        1 UNL1     -0.0516
     24 O         8.880418   1.825488   0.772454 O.3        1 UNL1     -0.5068
     25 O         6.850926   -3.189448   4.94191 O.2        1 UNL1     -0.2917
     26 O         4.838455   -2.100309   6.367485 O.3        1 UNL1     -0.5058
     27 O         1.989329   -1.160759   1.115858 O.3        1 UNL1     -0.3648
     28 O         -1.275329   -1.564992   -0.367646 O.3        1 UNL1     -0.3841
     29 O         -0.794282   0.896696   2.193512 O.3        1 UNL1     -0.3863
     30 O         -2.386391   -2.410831   2.353389 O.3        1 UNL1     -0.3829
     31 H         0.894514   -2.506622   0.131977 H        1 UNL1     0.0937
     32 H         0.0   0.0   0.0 H        1 UNL1     0.0671
     33 H         -2.28231   -0.137399   1.298996 H        1 UNL1     0.0649
     34 H         -1.913863   -0.927786   3.69101 H        1 UNL1     0.0683
     35 H         -0.450369   -2.887403   3.870841 H        1 UNL1     0.1085
     36 H         2.414749   -1.335871   6.14704 H        1 UNL1     0.0691
     37 H         2.113789   -2.037017   1.898745 H        1 UNL1     0.0691
     38 H         6.02428   -4.83999   2.688696 H        1 UNL1     0.0385
     39 H         7.561745   -3.954971   2.650204 H        1 UNL1     0.0385
     40 H         6.127231   -3.567169   0.61032 H        1 UNL1     0.0789
     41 H         7.328721   -2.1375   -0.675016 H        1 UNL1     0.0623
     42 H         8.60194   -0.052362   -0.980453 H        1 UNL1     0.0654
     43 H         7.482409   1.223023   2.965358 H        1 UNL1     0.0654
     44 H         6.187253   -0.808688   3.282656 H        1 UNL1     0.0623
     45 H         9.750768   1.560864   0.433069 H        1 UNL1     0.2921
     46 H         5.486733   -1.378482   6.356857 H        1 UNL1     0.2922
     47 H         2.197553   -0.650367   0.320872 H        1 UNL1     0.2126
     48 H         -0.788927   -1.644236   -1.210775 H        1 UNL1     0.2101
     49 H         0.16345   0.956866   2.048866 H        1 UNL1     0.2100
     50 H         -3.270367   -1.998154   2.263962 H        1 UNL1     0.2102
@<TRIPOS>BOND
     1     1     2    1
     2     1     6    1
     3     2     3    1
     4     3     4    1
     5     3    29    1
     6     3    33    1
     7     4     5    1
     8     5     6    1
     9     5     7    1
    10     5    35    1
    11     7     8    1
    12     8     9   ar
    13     8    13   ar
    14     9    10   ar
    15     9    36    1
    16    10    11   ar
    17    10    26    1
    18    11    12   ar
    19    11    14    1
    20    12    13   ar
    21    12    17    1
    22    13    37    1
    23    14    15    1
    24    14    25    2
    25    15    16    1
    26    15    38    1
    27    15    39    1
    28    16    17    1
    29    16    18    1
    30    16    40    1
    31    18    19   ar
    32    18    23   ar
    33    19    20   ar
    34    19    41    1
    35    20    21   ar
    36    20    42    1
    37    21    22   ar
    38    21    24    1
    39    22    23   ar
    40    22    43    1
    41    23    44    1
    42    24    45    1
    43    26    46    1
    44    27    47    1
    45    28    48    1
    46    29    49    1
    47    30    50    1
    48     1    31    1
    49     1    27    1
    50     2    32    1
    51     2    28    1
    52     4    34    1
    53     4    30    1
