@<TRIPOS>MOLECULE
*****
 50 53 0 0 0
SMALL
GASTEIGER

@<TRIPOS>ATOM
     1 C         -0.701242   -1.822726   0.978128 C.3        1 UNL1     0.1889
     2 C         -0.004553   -1.07986   -0.193501 C.3        1 UNL1     0.1342
     3 C         -0.623845   -1.338693   -1.57551 C.3        1 UNL1     0.1174
     4 C         -1.158135   -2.764935   -1.728764 C.3        1 UNL1     0.1456
     5 C         -1.99803   -3.213746   -0.519008 C.3        1 UNL1     0.2326
     6 O         -1.226265   -3.10682   0.675066 O.3        1 UNL1     -0.3076
     7 O         -3.273297   -2.552668   -0.429626 O.3        1 UNL1     -0.4605
     8 C         -4.301138   -3.291169   0.128664 C.ar        1 UNL1     0.1310
     9 C         -4.605999   -4.620494   -0.183192 C.ar        1 UNL1     0.0226
     10 C         -5.659613   -5.28937   0.451161 C.ar        1 UNL1     0.1343
     11 C         -6.419605   -4.651955   1.430935 C.ar        1 UNL1     0.1007
     12 C         -6.150947   -3.311739   1.7215 C.ar        1 UNL1     0.1389
     13 C         -5.093183   -2.638595   1.081623 C.ar        1 UNL1     0.0229
     14 C         -7.489775   -5.336878   2.192361 C.2        1 UNL1     0.1740
     15 C         -8.049732   -4.572603   3.355926 C.3        1 UNL1     0.0520
     16 C         -8.187935   -3.111476   2.951001 C.3        1 UNL1     0.1322
     17 O         -6.904282   -2.555916   2.589534 O.3        1 UNL1     -0.4828
     18 C         -9.299336   -2.857591   1.929701 C.ar        1 UNL1     -0.0067
     19 C         -9.024192   -2.0809   0.785471 C.ar        1 UNL1     -0.0516
     20 C         -10.029804   -1.790068   -0.144112 C.ar        1 UNL1     -0.0198
     21 C         -11.313413   -2.26283   0.062462 C.ar        1 UNL1     0.1169
     22 C         -11.607507   -3.058208   1.162335 C.ar        1 UNL1     -0.0198
     23 C         -10.597797   -3.364595   2.082481 C.ar        1 UNL1     -0.0516
     24 O         -12.275334   -1.927659   -0.844604 O.3        1 UNL1     -0.5068
     25 O         -7.85704   -6.485303   1.958436 O.2        1 UNL1     -0.2917
     26 O         -5.905706   -6.584843   0.100772 O.3        1 UNL1     -0.5058
     27 O         -1.643565   -1.022555   1.674218 O.3        1 UNL1     -0.3648
     28 O         1.368799   -1.507793   -0.252538 O.3        1 UNL1     -0.3841
     29 O         -1.60221   -0.344738   -1.886935 O.3        1 UNL1     -0.3863
     30 O         -0.046152   -3.673219   -1.884341 O.3        1 UNL1     -0.3829
     31 H         0.075594   -2.032628   1.721463 H        1 UNL1     0.0937
     32 H         0.0   0.0   0.0 H        1 UNL1     0.0671
     33 H         0.168445   -1.213689   -2.326756 H        1 UNL1     0.0649
     34 H         -1.764248   -2.84153   -2.638248 H        1 UNL1     0.0683
     35 H         -2.165705   -4.283583   -0.695681 H        1 UNL1     0.1085
     36 H         -4.017465   -5.188524   -0.895295 H        1 UNL1     0.0691
     37 H         -4.905244   -1.595024   1.324796 H        1 UNL1     0.0691
     38 H         -7.352728   -4.686217   4.193066 H        1 UNL1     0.0385
     39 H         -9.008941   -5.014058   3.647154 H        1 UNL1     0.0385
     40 H         -8.485542   -2.553443   3.849082 H        1 UNL1     0.0789
     41 H         -8.026833   -1.690443   0.605283 H        1 UNL1     0.0623
     42 H         -9.807888   -1.180147   -1.016328 H        1 UNL1     0.0654
     43 H         -12.605822   -3.446185   1.325899 H        1 UNL1     0.0654
     44 H         -10.860566   -3.997406   2.924708 H        1 UNL1     0.0623
     45 H         -12.363595   -0.960798   -0.854914 H        1 UNL1     0.2921
     46 H         -5.867046   -7.146626   0.890909 H        1 UNL1     0.2922
     47 H         -1.223205   -0.212061   1.993992 H        1 UNL1     0.2126
     48 H         1.782116   -1.238584   0.590331 H        1 UNL1     0.2101
     49 H         -1.167802   0.509588   -2.039287 H        1 UNL1     0.2100
     50 H         0.394091   -3.467925   -2.735078 H        1 UNL1     0.2102
@<TRIPOS>BOND
     1     1     2    1
     2     1     6    1
     3     2     3    1
     4     3     4    1
     5     3    29    1
     6     3    33    1
     7     4     5    1
     8     5     6    1
     9     5     7    1
    10     5    35    1
    11     7     8    1
    12     8     9   ar
    13     8    13   ar
    14     9    10   ar
    15     9    36    1
    16    10    11   ar
    17    10    26    1
    18    11    12   ar
    19    11    14    1
    20    12    13   ar
    21    12    17    1
    22    13    37    1
    23    14    15    1
    24    14    25    2
    25    15    16    1
    26    15    38    1
    27    15    39    1
    28    16    17    1
    29    16    18    1
    30    16    40    1
    31    18    19   ar
    32    18    23   ar
    33    19    20   ar
    34    19    41    1
    35    20    21   ar
    36    20    42    1
    37    21    22   ar
    38    21    24    1
    39    22    23   ar
    40    22    43    1
    41    23    44    1
    42    24    45    1
    43    26    46    1
    44    27    47    1
    45    28    48    1
    46    29    49    1
    47    30    50    1
    48     1    31    1
    49     1    27    1
    50     2    32    1
    51     2    28    1
    52     4    34    1
    53     4    30    1
