@<TRIPOS>MOLECULE
*****
 50 53 0 0 0
SMALL
GASTEIGER

@<TRIPOS>ATOM
     1 C         -0.333995   -1.32921   1.700721 C.3        1 UNL1     0.1889
     2 C         -0.463519   -0.975068   0.194817 C.3        1 UNL1     0.1342
     3 C         -1.904132   -0.960685   -0.338936 C.3        1 UNL1     0.1174
     4 C         -2.791765   -2.019521   0.31992 C.3        1 UNL1     0.1456
     5 C         -2.640773   -2.046111   1.851866 C.3        1 UNL1     0.2326
     6 O         -1.276235   -2.265822   2.202055 O.3        1 UNL1     -0.3076
     7 O         -3.214791   -0.898948   2.504432 O.3        1 UNL1     -0.4605
     8 C         -3.725454   -1.114858   3.771766 C.ar        1 UNL1     0.1310
     9 C         -4.543164   -2.187257   4.14407 C.ar        1 UNL1     0.0226
     10 C         -4.997021   -2.328199   5.460904 C.ar        1 UNL1     0.1343
     11 C         -4.624273   -1.412226   6.443703 C.ar        1 UNL1     0.1007
     12 C         -3.841732   -0.314693   6.075145 C.ar        1 UNL1     0.1389
     13 C         -3.387687   -0.171762   4.75044 C.ar        1 UNL1     0.0229
     14 C         -5.005893   -1.558778   7.867445 C.2        1 UNL1     0.1740
     15 C         -4.336474   -0.612008   8.819839 C.3        1 UNL1     0.0520
     16 C         -4.265345   0.760417   8.164593 C.3        1 UNL1     0.1322
     17 O         -3.506137   0.70373   6.936806 O.3        1 UNL1     -0.4828
     18 C         -5.623781   1.454386   8.038972 C.ar        1 UNL1     -0.0067
     19 C         -6.000793   2.020224   6.803697 C.ar        1 UNL1     -0.0516
     20 C         -7.21525   2.703189   6.667256 C.ar        1 UNL1     -0.0198
     21 C         -8.056192   2.833248   7.758003 C.ar        1 UNL1     0.1169
     22 C         -7.727956   2.2581   8.978783 C.ar        1 UNL1     -0.0198
     23 C         -6.522051   1.559202   9.110662 C.ar        1 UNL1     -0.0516
     24 O         -9.213026   3.537685   7.597058 O.3        1 UNL1     -0.5068
     25 O         -5.755853   -2.439997   8.279147 O.2        1 UNL1     -0.2917
     26 O         -5.792641   -3.395899   5.758546 O.3        1 UNL1     -0.5058
     27 O         -0.227848   -0.191698   2.541903 O.3        1 UNL1     -0.3648
     28 O         0.266303   -1.953701   -0.568297 O.3        1 UNL1     -0.3841
     29 O         -2.460254   0.353449   -0.262047 O.3        1 UNL1     -0.3863
     30 O         -2.445349   -3.320299   -0.203209 O.3        1 UNL1     -0.3829
     31 H         0.626097   -1.843146   1.819764 H        1 UNL1     0.0937
     32 H         0.0   0.0   0.0 H        1 UNL1     0.0671
     33 H         -1.866951   -1.199501   -1.410992 H        1 UNL1     0.0649
     34 H         -3.841604   -1.839923   0.063049 H        1 UNL1     0.0683
     35 H         -3.196527   -2.941626   2.15694 H        1 UNL1     0.1085
     36 H         -4.822057   -2.963096   3.439504 H        1 UNL1     0.0691
     37 H         -2.780574   0.692229   4.488857 H        1 UNL1     0.0691
     38 H         -3.334661   -1.003384   9.026533 H        1 UNL1     0.0385
     39 H         -4.897132   -0.593103   9.760628 H        1 UNL1     0.0385
     40 H         -3.670089   1.404433   8.825981 H        1 UNL1     0.0789
     41 H         -5.354017   1.93975   5.934873 H        1 UNL1     0.0623
     42 H         -7.489251   3.14538   5.712582 H        1 UNL1     0.0654
     43 H         -8.386117   2.340989   9.835442 H        1 UNL1     0.0654
     44 H         -6.3025   1.113559   10.076087 H        1 UNL1     0.0623
     45 H         -8.985818   4.445577   7.338552 H        1 UNL1     0.2921
     46 H         -5.389711   -3.90945   6.476408 H        1 UNL1     0.2922
     47 H         0.515804   0.361479   2.264707 H        1 UNL1     0.2126
     48 H         1.199181   -1.88903   -0.286713 H        1 UNL1     0.2101
     49 H         -2.020665   0.935782   -0.901925 H        1 UNL1     0.2100
     50 H         -2.678252   -3.334429   -1.154665 H        1 UNL1     0.2102
@<TRIPOS>BOND
     1     1     2    1
     2     1     6    1
     3     2     3    1
     4     3     4    1
     5     3    29    1
     6     3    33    1
     7     4     5    1
     8     5     6    1
     9     5     7    1
    10     5    35    1
    11     7     8    1
    12     8     9   ar
    13     8    13   ar
    14     9    10   ar
    15     9    36    1
    16    10    11   ar
    17    10    26    1
    18    11    12   ar
    19    11    14    1
    20    12    13   ar
    21    12    17    1
    22    13    37    1
    23    14    15    1
    24    14    25    2
    25    15    16    1
    26    15    38    1
    27    15    39    1
    28    16    17    1
    29    16    18    1
    30    16    40    1
    31    18    19   ar
    32    18    23   ar
    33    19    20   ar
    34    19    41    1
    35    20    21   ar
    36    20    42    1
    37    21    22   ar
    38    21    24    1
    39    22    23   ar
    40    22    43    1
    41    23    44    1
    42    24    45    1
    43    26    46    1
    44    27    47    1
    45    28    48    1
    46    29    49    1
    47    30    50    1
    48     1    31    1
    49     1    27    1
    50     2    32    1
    51     2    28    1
    52     4    34    1
    53     4    30    1
