@<TRIPOS>MOLECULE
*****
 50 53 0 0 0
SMALL
GASTEIGER

@<TRIPOS>ATOM
     1 C         -0.330304   -1.32721   1.703002 C.3        1 UNL1     0.1889
     2 C         -0.461608   -0.975605   0.196658 C.3        1 UNL1     0.1342
     3 C         -1.902648   -0.964641   -0.336022 C.3        1 UNL1     0.1174
     4 C         -2.787866   -2.024071   0.325124 C.3        1 UNL1     0.1456
     5 C         -2.635667   -2.048046   1.856994 C.3        1 UNL1     0.2326
     6 O         -1.27047   -2.264756   2.206482 O.3        1 UNL1     -0.3076
     7 O         -3.211264   -0.900927   2.508243 O.3        1 UNL1     -0.4605
     8 C         -3.720152   -1.115715   3.776481 C.ar        1 UNL1     0.1310
     9 C         -4.535338   -2.189104   4.151458 C.ar        1 UNL1     0.0226
     10 C         -4.987516   -2.328729   5.46901 C.ar        1 UNL1     0.1343
     11 C         -4.61554   -1.410368   6.44987 C.ar        1 UNL1     0.1007
     12 C         -3.835569   -0.311909   6.078636 C.ar        1 UNL1     0.1389
     13 C         -3.383215   -0.170308   4.753209 C.ar        1 UNL1     0.0229
     14 C         -4.995357   -1.55528   7.874263 C.2        1 UNL1     0.1740
     15 C         -4.326805   -0.605586   8.824351 C.3        1 UNL1     0.0520
     16 C         -4.259092   0.765873   8.166725 C.3        1 UNL1     0.1322
     17 O         -3.501078   0.708624   6.938226 O.3        1 UNL1     -0.4828
     18 C         -5.619034   1.456938   8.041385 C.ar        1 UNL1     -0.0067
     19 C         -5.999264   2.018313   6.805061 C.ar        1 UNL1     -0.0516
     20 C         -7.215225   2.698608   6.668682 C.ar        1 UNL1     -0.0198
     21 C         -8.054492   2.830429   7.760507 C.ar        1 UNL1     0.1169
     22 C         -7.723045   2.25961   8.982452 C.ar        1 UNL1     -0.0198
     23 C         -6.515615   1.563352   9.114332 C.ar        1 UNL1     -0.0516
     24 O         -9.212913   3.532229   7.599458 O.3        1 UNL1     -0.5068
     25 O         -5.743131   -2.437289   8.288243 O.2        1 UNL1     -0.2917
     26 O         -5.780701   -3.3975   5.769292 O.3        1 UNL1     -0.5058
     27 O         -0.225578   -0.188224   2.542365 O.3        1 UNL1     -0.3648
     28 O         0.269405   -1.954083   -0.565515 O.3        1 UNL1     -0.3841
     29 O         -2.461087   0.348602   -0.260718 O.3        1 UNL1     -0.3863
     30 O         -2.439494   -3.325019   -0.19628 O.3        1 UNL1     -0.3829
     31 H         0.630806   -1.839228   1.822101 H        1 UNL1     0.0937
     32 H         0.0   0.0   0.0 H        1 UNL1     0.0671
     33 H         -1.865846   -1.205028   -1.40774 H        1 UNL1     0.0649
     34 H         -3.838222   -1.846763   0.068777 H        1 UNL1     0.0683
     35 H         -3.18957   -2.944096   2.163857 H        1 UNL1     0.1085
     36 H         -4.813442   -2.966677   3.448493 H        1 UNL1     0.0691
     37 H         -2.778094   0.694443   4.489529 H        1 UNL1     0.0691
     38 H         -3.323999   -0.99463   9.030634 H        1 UNL1     0.0385
     39 H         -4.8865   -0.586208   9.765704 H        1 UNL1     0.0385
     40 H         -3.664411   1.412178   8.826395 H        1 UNL1     0.0789
     41 H         -5.353865   1.936393   5.935349 H        1 UNL1     0.0623
     42 H         -7.491722   3.137382   5.713152 H        1 UNL1     0.0654
     43 H         -8.379855   2.343887   9.840011 H        1 UNL1     0.0654
     44 H         -6.293541   1.121058   10.080719 H        1 UNL1     0.0623
     45 H         -8.987868   4.439558   7.337112 H        1 UNL1     0.2921
     46 H         -5.37582   -3.909239   6.48735 H        1 UNL1     0.2922
     47 H         0.516969   0.365783   2.263867 H        1 UNL1     0.2126
     48 H         1.202258   -1.887785   -0.284227 H        1 UNL1     0.2101
     49 H         -2.022917   0.930793   -0.901697 H        1 UNL1     0.2100
     50 H         -2.673091   -3.341024   -1.147537 H        1 UNL1     0.2102
@<TRIPOS>BOND
     1     1     2    1
     2     1     6    1
     3     2     3    1
     4     3     4    1
     5     3    29    1
     6     3    33    1
     7     4     5    1
     8     5     6    1
     9     5     7    1
    10     5    35    1
    11     7     8    1
    12     8     9   ar
    13     8    13   ar
    14     9    10   ar
    15     9    36    1
    16    10    11   ar
    17    10    26    1
    18    11    12   ar
    19    11    14    1
    20    12    13   ar
    21    12    17    1
    22    13    37    1
    23    14    15    1
    24    14    25    2
    25    15    16    1
    26    15    38    1
    27    15    39    1
    28    16    17    1
    29    16    18    1
    30    16    40    1
    31    18    19   ar
    32    18    23   ar
    33    19    20   ar
    34    19    41    1
    35    20    21   ar
    36    20    42    1
    37    21    22   ar
    38    21    24    1
    39    22    23   ar
    40    22    43    1
    41    23    44    1
    42    24    45    1
    43    26    46    1
    44    27    47    1
    45    28    48    1
    46    29    49    1
    47    30    50    1
    48     1    31    1
    49     1    27    1
    50     2    32    1
    51     2    28    1
    52     4    34    1
    53     4    30    1
