@<TRIPOS>MOLECULE
*****
 50 53 0 0 0
SMALL
GASTEIGER

@<TRIPOS>ATOM
     1 C         -0.332197   -1.328099   1.701941 C.3        1 UNL1     0.1889
     2 C         -0.462614   -0.975302   0.195798 C.3        1 UNL1     0.1342
     3 C         -1.903448   -0.96258   -0.3374 C.3        1 UNL1     0.1174
     4 C         -2.789921   -2.02163   0.322672 C.3        1 UNL1     0.1456
     5 C         -2.638306   -2.046836   1.85458 C.3        1 UNL1     0.2326
     6 O         -1.273444   -2.265101   2.204412 O.3        1 UNL1     -0.3076
     7 O         -3.213042   -0.899627   2.506432 O.3        1 UNL1     -0.4605
     8 C         -3.722599   -1.114827   3.774331 C.ar        1 UNL1     0.1310
     9 C         -4.53895   -2.1877   4.148249 C.ar        1 UNL1     0.0226
     10 C         -4.991743   -2.327825   5.465537 C.ar        1 UNL1     0.1343
     11 C         -4.619247   -1.410516   6.447184 C.ar        1 UNL1     0.1007
     12 C         -3.838088   -0.312541   6.077013 C.ar        1 UNL1     0.1389
     13 C         -3.385114   -0.170435   4.751852 C.ar        1 UNL1     0.0229
     14 C         -4.999723   -1.556074   7.871335 C.2        1 UNL1     0.1740
     15 C         -4.330609   -0.607693   8.82234 C.3        1 UNL1     0.0520
     16 C         -4.261342   0.764166   8.16571 C.3        1 UNL1     0.1322
     17 O         -3.502935   0.707061   6.937449 O.3        1 UNL1     -0.4828
     18 C         -5.620576   1.456622   8.040365 C.ar        1 UNL1     -0.0067
     19 C         -5.999816   2.019237   6.8043 C.ar        1 UNL1     -0.0516
     20 C         -7.215076   2.700793   6.66796 C.ar        1 UNL1     -0.0198
     21 C         -8.054615   2.832644   7.759572 C.ar        1 UNL1     0.1169
     22 C         -7.724162   2.260642   8.981232 C.ar        1 UNL1     -0.0198
     23 C         -6.517447   1.563134   9.113059 C.ar        1 UNL1     -0.0516
     24 O         -9.212305   3.535666   7.598597 O.3        1 UNL1     -0.5068
     25 O         -5.748493   -2.437658   8.284417 O.2        1 UNL1     -0.2917
     26 O         -5.786061   -3.396048   5.764773 O.3        1 UNL1     -0.5058
     27 O         -0.226687   -0.189809   2.542148 O.3        1 UNL1     -0.3648
     28 O         0.26774   -1.953939   -0.566801 O.3        1 UNL1     -0.3841
     29 O         -2.460656   0.351144   -0.261369 O.3        1 UNL1     -0.3863
     30 O         -2.442605   -3.32254   -0.199527 O.3        1 UNL1     -0.3829
     31 H         0.628378   -1.841122   1.821027 H        1 UNL1     0.0937
     32 H         0.0   0.0   0.0 H        1 UNL1     0.0671
     33 H         -1.866484   -1.202242   -1.409275 H        1 UNL1     0.0649
     34 H         -3.840014   -1.843134   0.066067 H        1 UNL1     0.0683
     35 H         -3.193179   -2.942572   2.160605 H        1 UNL1     0.1085
     36 H         -4.817541   -2.964508   3.444632 H        1 UNL1     0.0691
     37 H         -2.779069   0.693923   4.489005 H        1 UNL1     0.0691
     38 H         -3.328252   -0.997843   9.028713 H        1 UNL1     0.0385
     39 H         -4.890629   -0.588447   9.763502 H        1 UNL1     0.0385
     40 H         -3.666285   1.409433   8.826056 H        1 UNL1     0.0789
     41 H         -5.354178   1.937314   5.934765 H        1 UNL1     0.0623
     42 H         -7.490803   3.140508   5.71264 H        1 UNL1     0.0654
     43 H         -8.381204   2.344941   9.838611 H        1 UNL1     0.0654
     44 H         -6.29615   1.119944   10.079214 H        1 UNL1     0.0623
     45 H         -8.986274   4.443156   7.337657 H        1 UNL1     0.2921
     46 H         -5.382019   -3.908586   6.482733 H        1 UNL1     0.2922
     47 H         0.516385   0.363772   2.264207 H        1 UNL1     0.2126
     48 H         1.200673   -1.888245   -0.285638 H        1 UNL1     0.2101
     49 H         -2.037073   0.92773   -0.917052 H        1 UNL1     0.2100
     50 H         -2.67587   -3.337648   -1.15088 H        1 UNL1     0.2102
@<TRIPOS>BOND
     1     1     2    1
     2     1     6    1
     3     2     3    1
     4     3     4    1
     5     3    29    1
     6     3    33    1
     7     4     5    1
     8     5     6    1
     9     5     7    1
    10     5    35    1
    11     7     8    1
    12     8     9   ar
    13     8    13   ar
    14     9    10   ar
    15     9    36    1
    16    10    11   ar
    17    10    26    1
    18    11    12   ar
    19    11    14    1
    20    12    13   ar
    21    12    17    1
    22    13    37    1
    23    14    15    1
    24    14    25    2
    25    15    16    1
    26    15    38    1
    27    15    39    1
    28    16    17    1
    29    16    18    1
    30    16    40    1
    31    18    19   ar
    32    18    23   ar
    33    19    20   ar
    34    19    41    1
    35    20    21   ar
    36    20    42    1
    37    21    22   ar
    38    21    24    1
    39    22    23   ar
    40    22    43    1
    41    23    44    1
    42    24    45    1
    43    26    46    1
    44    27    47    1
    45    28    48    1
    46    29    49    1
    47    30    50    1
    48     1    31    1
    49     1    27    1
    50     2    32    1
    51     2    28    1
    52     4    34    1
    53     4    30    1
