@<TRIPOS>MOLECULE
*****
 50 53 0 0 0
SMALL
GASTEIGER

@<TRIPOS>ATOM
     1 C         -0.32099   -1.32276   1.708237 C.3        1 UNL1     0.1889
     2 C         -0.456674   -0.977059   0.200915 C.3        1 UNL1     0.1342
     3 C         -1.898714   -0.974706   -0.329161 C.3        1 UNL1     0.1174
     4 C         -2.777756   -2.035942   0.337308 C.3        1 UNL1     0.1456
     5 C         -2.622667   -2.053832   1.868971 C.3        1 UNL1     0.2326
     6 O         -1.255837   -2.262924   2.216714 O.3        1 UNL1     -0.3076
     7 O         -3.20245   -0.907142   2.517256 O.3        1 UNL1     -0.4605
     8 C         -3.708023   -1.11986   3.787167 C.ar        1 UNL1     0.1310
     9 C         -4.51749   -2.19573   4.167389 C.ar        1 UNL1     0.0226
     10 C         -4.966616   -2.332848   5.486247 C.ar        1 UNL1     0.1343
     11 C         -4.597169   -1.409322   6.463206 C.ar        1 UNL1     0.1007
     12 C         -3.823028   -0.308533   6.086703 C.ar        1 UNL1     0.1389
     13 C         -3.373749   -0.169466   4.759963 C.ar        1 UNL1     0.0229
     14 C         -4.973716   -1.551013   7.88879 C.2        1 UNL1     0.1740
     15 C         -4.307899   -0.594874   8.834324 C.3        1 UNL1     0.0520
     16 C         -4.247807   0.774572   8.17178 C.3        1 UNL1     0.1322
     17 O         -3.491764   0.716562   6.942104 O.3        1 UNL1     -0.4828
     18 C         -5.611198   1.458821   8.046514 C.ar        1 UNL1     -0.0067
     19 C         -5.996297   2.014071   6.808932 C.ar        1 UNL1     -0.0516
     20 C         -7.215678   2.688186   6.6724 C.ar        1 UNL1     -0.0198
     21 C         -8.053571   2.819907   7.765293 C.ar        1 UNL1     0.1169
     22 C         -7.717236   2.254934   8.988617 C.ar        1 UNL1     -0.0198
     23 C         -6.506319   1.564801   9.120721 C.ar        1 UNL1     -0.0516
     24 O         -9.215559   3.515708   7.60391 O.3        1 UNL1     -0.5068
     25 O         -5.716597   -2.435054   8.307222 O.2        1 UNL1     -0.2917
     26 O         -5.754238   -3.404259   5.791719 O.3        1 UNL1     -0.5058
     27 O         -0.220079   -0.180359   2.543417 O.3        1 UNL1     -0.3648
     28 O         0.277532   -1.954772   -0.559167 O.3        1 UNL1     -0.3841
     29 O         -2.463162   0.336165   -0.257429 O.3        1 UNL1     -0.3863
     30 O         -2.424239   -3.337066   -0.180179 O.3        1 UNL1     -0.3829
     31 H         0.642723   -1.829854   1.827366 H        1 UNL1     0.0937
     32 H         0.0   0.0   0.0 H        1 UNL1     0.0671
     33 H         -1.862731   -1.218676   -1.400097 H        1 UNL1     0.0649
     34 H         -3.829395   -1.864451   0.082266 H        1 UNL1     0.0683
     35 H         -3.171807   -2.951383   2.179981 H        1 UNL1     0.1085
     36 H         -4.793221   -2.977057   3.467659 H        1 UNL1     0.0691
     37 H         -2.773166   0.697177   4.492151 H        1 UNL1     0.0691
     38 H         -3.302909   -0.978495   9.04013 H        1 UNL1     0.0385
     39 H         -4.865969   -0.574815   9.776626 H        1 UNL1     0.0385
     40 H         -3.654966   1.425962   8.828096 H        1 UNL1     0.0789
     41 H         -5.352101   1.932122   5.938331 H        1 UNL1     0.0623
     42 H         -7.495962   3.122307   5.715848 H        1 UNL1     0.0654
     43 H         -8.372876   2.339144   9.847078 H        1 UNL1     0.0654
     44 H         -6.280422   1.126943   10.088242 H        1 UNL1     0.0623
     45 H         -8.995222   4.423349   7.338659 H        1 UNL1     0.2921
     46 H         -5.345834   -3.911382   6.511055 H        1 UNL1     0.2922
     47 H         0.519356   0.376136   2.261623 H        1 UNL1     0.2126
     48 H         1.210689   -1.882636   -0.280335 H        1 UNL1     0.2101
     49 H         -2.028889   0.918148   -0.901243 H        1 UNL1     0.2100
     50 H         -2.659484   -3.357501   -1.130944 H        1 UNL1     0.2102
@<TRIPOS>BOND
     1     1     2    1
     2     1     6    1
     3     2     3    1
     4     3     4    1
     5     3    29    1
     6     3    33    1
     7     4     5    1
     8     5     6    1
     9     5     7    1
    10     5    35    1
    11     7     8    1
    12     8     9   ar
    13     8    13   ar
    14     9    10   ar
    15     9    36    1
    16    10    11   ar
    17    10    26    1
    18    11    12   ar
    19    11    14    1
    20    12    13   ar
    21    12    17    1
    22    13    37    1
    23    14    15    1
    24    14    25    2
    25    15    16    1
    26    15    38    1
    27    15    39    1
    28    16    17    1
    29    16    18    1
    30    16    40    1
    31    18    19   ar
    32    18    23   ar
    33    19    20   ar
    34    19    41    1
    35    20    21   ar
    36    20    42    1
    37    21    22   ar
    38    21    24    1
    39    22    23   ar
    40    22    43    1
    41    23    44    1
    42    24    45    1
    43    26    46    1
    44    27    47    1
    45    28    48    1
    46    29    49    1
    47    30    50    1
    48     1    31    1
    49     1    27    1
    50     2    32    1
    51     2    28    1
    52     4    34    1
    53     4    30    1
