@<TRIPOS>MOLECULE
*****
 50 53 0 0 0
SMALL
GASTEIGER

@<TRIPOS>ATOM
     1 C         -0.370822   -1.397779   1.63692 C.3        1 UNL1     0.1889
     2 C         -0.487831   -0.971302   0.148846 C.3        1 UNL1     0.1342
     3 C         -1.926313   -0.896724   -0.385636 C.3        1 UNL1     0.1174
     4 C         -2.841349   -1.962673   0.222295 C.3        1 UNL1     0.1456
     5 C         -2.694895   -2.063782   1.751573 C.3        1 UNL1     0.2326
     6 O         -1.337051   -2.333042   2.09308 O.3        1 UNL1     -0.3076
     7 O         -3.242177   -0.934208   2.455751 O.3        1 UNL1     -0.4605
     8 C         -3.771399   -1.197846   3.706329 C.ar        1 UNL1     0.1310
     9 C         -4.614896   -2.269054   4.019897 C.ar        1 UNL1     0.0226
     10 C         -5.086361   -2.461295   5.323994 C.ar        1 UNL1     0.1343
     11 C         -4.706183   -1.599748   6.352119 C.ar        1 UNL1     0.1007
     12 C         -3.897377   -0.502878   6.043099 C.ar        1 UNL1     0.1389
     13 C         -3.425595   -0.308291   4.731235 C.ar        1 UNL1     0.0229
     14 C         -5.106752   -1.804044   7.763488 C.2        1 UNL1     0.1740
     15 C         -4.429015   -0.916513   8.765741 C.3        1 UNL1     0.0520
     16 C         -4.322601   0.482983   8.175788 C.3        1 UNL1     0.1322
     17 O         -3.550892   0.467366   6.954604 O.3        1 UNL1     -0.4828
     18 C         -5.665142   1.210174   8.068541 C.ar        1 UNL1     -0.0067
     19 C         -5.687494   2.57369   7.710019 C.ar        1 UNL1     -0.0516
     20 C         -6.894305   3.28069   7.649012 C.ar        1 UNL1     -0.0198
     21 C         -8.082112   2.638877   7.950703 C.ar        1 UNL1     0.1169
     22 C         -8.095823   1.288395   8.274507 C.ar        1 UNL1     -0.0198
     23 C         -6.891056   0.576543   8.317623 C.ar        1 UNL1     -0.0516
     24 O         -9.233561   3.36926   7.91745 O.3        1 UNL1     -0.5068
     25 O         -5.879076   -2.687553   8.125998 O.2        1 UNL1     -0.2917
     26 O         -5.906836   -3.524815   5.563431 O.3        1 UNL1     -0.5058
     27 O         -0.238858   -0.303342   2.529993 O.3        1 UNL1     -0.3648
     28 O         0.219628   -1.93131   -0.657748 O.3        1 UNL1     -0.3841
     29 O         -2.45016   0.425768   -0.248766 O.3        1 UNL1     -0.3863
     30 O         -2.525699   -3.246021   -0.360005 O.3        1 UNL1     -0.3829
     31 H         0.576047   -1.940196   1.733359 H        1 UNL1     0.0937
     32 H         0.0   0.0   0.0 H        1 UNL1     0.0671
     33 H         -1.892327   -1.086561   -1.467545 H        1 UNL1     0.0649
     34 H         -3.885811   -1.745548   -0.027421 H        1 UNL1     0.0683
     35 H         -3.273253   -2.958462   2.014113 H        1 UNL1     0.1085
     36 H         -4.901536   -3.005478   3.277174 H        1 UNL1     0.0691
     37 H         -2.798125   0.554042   4.516396 H        1 UNL1     0.0691
     38 H         -3.437764   -1.337824   8.964353 H        1 UNL1     0.0385
     39 H         -4.999757   -0.929486   9.700547 H        1 UNL1     0.0385
     40 H         -3.721878   1.08316   8.872522 H        1 UNL1     0.0789
     41 H         -4.767745   3.102514   7.477517 H        1 UNL1     0.0623
     42 H         -6.897222   4.334808   7.382855 H        1 UNL1     0.0654
     43 H         -9.021886   0.772244   8.4979 H        1 UNL1     0.0654
     44 H         -6.94004   -0.479759   8.563939 H        1 UNL1     0.0623
     45 H         -9.190376   4.041896   8.616316 H        1 UNL1     0.2921
     46 H         -5.534393   -4.066525   6.277048 H        1 UNL1     0.2922
     47 H         0.506303   0.25498   2.267557 H        1 UNL1     0.2126
     48 H         1.171783   -1.779361   -0.502685 H        1 UNL1     0.2101
     49 H         -2.134463   0.982884   -0.977978 H        1 UNL1     0.2100
     50 H         -2.782728   -3.21977   -1.30497 H        1 UNL1     0.2102
@<TRIPOS>BOND
     1     1     2    1
     2     1     6    1
     3     2     3    1
     4     3     4    1
     5     3    29    1
     6     3    33    1
     7     4     5    1
     8     5     6    1
     9     5     7    1
    10     5    35    1
    11     7     8    1
    12     8     9   ar
    13     8    13   ar
    14     9    10   ar
    15     9    36    1
    16    10    11   ar
    17    10    26    1
    18    11    12   ar
    19    11    14    1
    20    12    13   ar
    21    12    17    1
    22    13    37    1
    23    14    15    1
    24    14    25    2
    25    15    16    1
    26    15    38    1
    27    15    39    1
    28    16    17    1
    29    16    18    1
    30    16    40    1
    31    18    19   ar
    32    18    23   ar
    33    19    20   ar
    34    19    41    1
    35    20    21   ar
    36    20    42    1
    37    21    22   ar
    38    21    24    1
    39    22    23   ar
    40    22    43    1
    41    23    44    1
    42    24    45    1
    43    26    46    1
    44    27    47    1
    45    28    48    1
    46    29    49    1
    47    30    50    1
    48     1    31    1
    49     1    27    1
    50     2    32    1
    51     2    28    1
    52     4    34    1
    53     4    30    1
