@<TRIPOS>MOLECULE
*****
 50 53 0 0 0
SMALL
GASTEIGER

@<TRIPOS>ATOM
     1 C         -0.322524   -1.323787   1.707153 C.3        1 UNL1     0.1889
     2 C         -0.457413   -0.976894   0.200033 C.3        1 UNL1     0.1342
     3 C         -1.899255   -0.973172   -0.330574 C.3        1 UNL1     0.1174
     4 C         -2.779266   -2.034295   0.334795 C.3        1 UNL1     0.1456
     5 C         -2.624757   -2.053408   1.866501 C.3        1 UNL1     0.2326
     6 O         -1.258199   -2.263684   2.214598 O.3        1 UNL1     -0.3076
     7 O         -3.203999   -0.906796   2.515409 O.3        1 UNL1     -0.4605
     8 C         -3.710612   -1.120205   3.784789 C.ar        1 UNL1     0.1310
     9 C         -4.521254   -2.195718   4.163513 C.ar        1 UNL1     0.0226
     10 C         -4.971389   -2.333618   5.481946 C.ar        1 UNL1     0.1343
     11 C         -4.601814   -1.411271   6.45997 C.ar        1 UNL1     0.1007
     12 C         -3.826479   -0.310812   6.084964 C.ar        1 UNL1     0.1389
     13 C         -3.376184   -0.170957   4.758651 C.ar        1 UNL1     0.0229
     14 C         -4.979446   -1.553901   7.885173 C.2        1 UNL1     0.1740
     15 C         -4.313452   -0.599167   8.832002 C.3        1 UNL1     0.0520
     16 C         -4.251743   0.770812   8.17071 C.3        1 UNL1     0.1322
     17 O         -3.494918   0.713244   6.941494 O.3        1 UNL1     -0.4828
     18 C         -5.614464   1.456337   8.045129 C.ar        1 UNL1     -0.0067
     19 C         -5.997083   2.015471   6.808526 C.ar        1 UNL1     -0.0516
     20 C         -7.215782   2.690797   6.671895 C.ar        1 UNL1     -0.0198
     21 C         -8.055451   2.819872   7.763739 C.ar        1 UNL1     0.1169
     22 C         -7.721579   2.25109   8.985973 C.ar        1 UNL1     -0.0198
     23 C         -6.511346   1.559763   9.118115 C.ar        1 UNL1     -0.0516
     24 O         -9.2167   3.51692   7.602418 O.3        1 UNL1     -0.5068
     25 O         -5.723364   -2.437676   8.302322 O.2        1 UNL1     -0.2917
     26 O         -5.760131   -3.404626   5.785938 O.3        1 UNL1     -0.5058
     27 O         -0.221144   -0.182065   2.543203 O.3        1 UNL1     -0.3648
     28 O         0.276408   -1.954553   -0.56049 O.3        1 UNL1     -0.3841
     29 O         -2.462837   0.338031   -0.258094 O.3        1 UNL1     -0.3863
     30 O         -2.426444   -3.335281   -0.18351 O.3        1 UNL1     -0.3829
     31 H         0.6408   -1.831624   1.826268 H        1 UNL1     0.0937
     32 H         0.0   0.0   0.0 H        1 UNL1     0.0671
     33 H         -1.863041   -1.216385   -1.401675 H        1 UNL1     0.0649
     34 H         -3.830694   -1.861902   0.079489 H        1 UNL1     0.0683
     35 H         -3.174623   -2.950811   2.176653 H        1 UNL1     0.1085
     36 H         -4.797179   -2.97619   3.462907 H        1 UNL1     0.0691
     37 H         -2.774681   0.695409   4.492011 H        1 UNL1     0.0691
     38 H         -3.308929   -0.983828   9.038148 H        1 UNL1     0.0385
     39 H         -4.872142   -0.579463   9.773945 H        1 UNL1     0.0385
     40 H         -3.658789   1.421116   8.828002 H        1 UNL1     0.0789
     41 H         -5.351457   1.935644   5.938788 H        1 UNL1     0.0623
     42 H         -7.494146   3.127909   5.716144 H        1 UNL1     0.0654
     43 H         -8.378627   2.33322   9.843559 H        1 UNL1     0.0654
     44 H         -6.287391   1.11892   10.084731 H        1 UNL1     0.0623
     45 H         -8.99531   4.425187   7.340207 H        1 UNL1     0.2921
     46 H         -5.352646   -3.912732   6.505102 H        1 UNL1     0.2922
     47 H         0.518668   0.37422   2.261982 H        1 UNL1     0.2126
     48 H         1.209511   -1.883256   -0.281261 H        1 UNL1     0.2101
     49 H         -2.028048   0.920143   -0.901444 H        1 UNL1     0.2100
     50 H         -2.661351   -3.354862   -1.134377 H        1 UNL1     0.2102
@<TRIPOS>BOND
     1     1     2    1
     2     1     6    1
     3     2     3    1
     4     3     4    1
     5     3    29    1
     6     3    33    1
     7     4     5    1
     8     5     6    1
     9     5     7    1
    10     5    35    1
    11     7     8    1
    12     8     9   ar
    13     8    13   ar
    14     9    10   ar
    15     9    36    1
    16    10    11   ar
    17    10    26    1
    18    11    12   ar
    19    11    14    1
    20    12    13   ar
    21    12    17    1
    22    13    37    1
    23    14    15    1
    24    14    25    2
    25    15    16    1
    26    15    38    1
    27    15    39    1
    28    16    17    1
    29    16    18    1
    30    16    40    1
    31    18    19   ar
    32    18    23   ar
    33    19    20   ar
    34    19    41    1
    35    20    21   ar
    36    20    42    1
    37    21    22   ar
    38    21    24    1
    39    22    23   ar
    40    22    43    1
    41    23    44    1
    42    24    45    1
    43    26    46    1
    44    27    47    1
    45    28    48    1
    46    29    49    1
    47    30    50    1
    48     1    31    1
    49     1    27    1
    50     2    32    1
    51     2    28    1
    52     4    34    1
    53     4    30    1
