@<TRIPOS>MOLECULE
*****
 50 53 0 0 0
SMALL
GASTEIGER

@<TRIPOS>ATOM
     1 C         -0.336887   -1.331136   1.698643 C.3        1 UNL1     0.1889
     2 C         -0.464891   -0.974749   0.193139 C.3        1 UNL1     0.1342
     3 C         -1.905104   -0.957805   -0.341618 C.3        1 UNL1     0.1174
     4 C         -2.794543   -2.016427   0.315142 C.3        1 UNL1     0.1456
     5 C         -2.644677   -2.045326   1.847156 C.3        1 UNL1     0.2326
     6 O         -1.280668   -2.267248   2.198011 O.3        1 UNL1     -0.3076
     7 O         -3.217708   -0.898341   2.500901 O.3        1 UNL1     -0.4605
     8 C         -3.729547   -1.115356   3.767571 C.ar        1 UNL1     0.1310
     9 C         -4.548877   -2.187234   4.137811 C.ar        1 UNL1     0.0226
     10 C         -5.00385   -2.329421   5.454126 C.ar        1 UNL1     0.1343
     11 C         -4.630644   -1.41528   6.438455 C.ar        1 UNL1     0.1007
     12 C         -3.846454   -0.31823   6.071973 C.ar        1 UNL1     0.1389
     13 C         -3.391285   -0.174043   4.747789 C.ar        1 UNL1     0.0229
     14 C         -5.013463   -1.563318   7.861722 C.2        1 UNL1     0.1740
     15 C         -4.343526   -0.618713   8.8159 C.3        1 UNL1     0.0520
     16 C         -4.270195   0.754525   8.162604 C.3        1 UNL1     0.1322
     17 O         -3.510185   0.698575   6.93528 O.3        1 UNL1     -0.4828
     18 C         -5.627663   1.450386   8.036978 C.ar        1 UNL1     -0.0067
     19 C         -6.002684   2.019224   6.802476 C.ar        1 UNL1     -0.0516
     20 C         -7.216174   2.70393   6.666159 C.ar        1 UNL1     -0.0198
     21 C         -8.058116   2.83275   7.756282 C.ar        1 UNL1     0.1169
     22 C         -7.731866   2.25469   8.976219 C.ar        1 UNL1     -0.0198
     23 C         -6.526943   1.554071   9.107931 C.ar        1 UNL1     -0.0516
     24 O         -9.213932   3.538909   7.595566 O.3        1 UNL1     -0.5068
     25 O         -5.76483   -2.444155   8.271671 O.2        1 UNL1     -0.2917
     26 O         -5.801031   -3.396524   5.749725 O.3        1 UNL1     -0.5058
     27 O         -0.229901   -0.194923   2.541473 O.3        1 UNL1     -0.3648
     28 O         0.264237   -1.953249   -0.57081 O.3        1 UNL1     -0.3841
     29 O         -2.459618   0.356925   -0.263306 O.3        1 UNL1     -0.3863
     30 O         -2.4494   -3.316917   -0.20954 O.3        1 UNL1     -0.3829
     31 H         0.62247   -1.846451   1.817657 H        1 UNL1     0.0937
     32 H         0.0   0.0   0.0 H        1 UNL1     0.0671
     33 H         -1.86746   -1.195185   -1.413977 H        1 UNL1     0.0649
     34 H         -3.843972   -1.835145   0.057774 H        1 UNL1     0.0683
     35 H         -3.20178   -2.940557   2.150596 H        1 UNL1     0.1085
     36 H         -4.828249   -2.961744   3.431974 H        1 UNL1     0.0691
     37 H         -2.782893   0.689541   4.487833 H        1 UNL1     0.0691
     38 H         -3.342357   -1.011642   9.022764 H        1 UNL1     0.0385
     39 H         -4.90483   -0.600399   9.756316 H        1 UNL1     0.0385
     40 H         -3.674596   1.396872   8.825305 H        1 UNL1     0.0789
     41 H         -5.355084   1.939764   5.934172 H        1 UNL1     0.0623
     42 H         -7.488631   3.148419   5.712111 H        1 UNL1     0.0654
     43 H         -8.390836   2.336604   9.832349 H        1 UNL1     0.0654
     44 H         -6.308951   1.106174   10.072665 H        1 UNL1     0.0623
     45 H         -8.985211   4.448543   7.344628 H        1 UNL1     0.2921
     46 H         -5.399953   -3.9108   6.468104 H        1 UNL1     0.2922
     47 H         0.512959   0.359113   2.263872 H        1 UNL1     0.2126
     48 H         1.199777   -1.878449   -0.300804 H        1 UNL1     0.2101
     49 H         -2.018837   0.939584   -0.902066 H        1 UNL1     0.2100
     50 H         -2.681643   -3.329437   -1.16118 H        1 UNL1     0.2102
@<TRIPOS>BOND
     1     1     2    1
     2     1     6    1
     3     2     3    1
     4     3     4    1
     5     3    29    1
     6     3    33    1
     7     4     5    1
     8     5     6    1
     9     5     7    1
    10     5    35    1
    11     7     8    1
    12     8     9   ar
    13     8    13   ar
    14     9    10   ar
    15     9    36    1
    16    10    11   ar
    17    10    26    1
    18    11    12   ar
    19    11    14    1
    20    12    13   ar
    21    12    17    1
    22    13    37    1
    23    14    15    1
    24    14    25    2
    25    15    16    1
    26    15    38    1
    27    15    39    1
    28    16    17    1
    29    16    18    1
    30    16    40    1
    31    18    19   ar
    32    18    23   ar
    33    19    20   ar
    34    19    41    1
    35    20    21   ar
    36    20    42    1
    37    21    22   ar
    38    21    24    1
    39    22    23   ar
    40    22    43    1
    41    23    44    1
    42    24    45    1
    43    26    46    1
    44    27    47    1
    45    28    48    1
    46    29    49    1
    47    30    50    1
    48     1    31    1
    49     1    27    1
    50     2    32    1
    51     2    28    1
    52     4    34    1
    53     4    30    1
