@<TRIPOS>MOLECULE
*****
 50 53 0 0 0
SMALL
GASTEIGER

@<TRIPOS>ATOM
     1 C         -0.360185   -1.598622   1.444118 C.3        1 UNL1     0.1889
     2 C         -0.370425   -1.03264   -0.001392 C.3        1 UNL1     0.1342
     3 C         -1.740217   -1.072703   -0.696037 C.3        1 UNL1     0.1174
     4 C         -2.568921   -2.298495   -0.303863 C.3        1 UNL1     0.1456
     5 C         -2.576461   -2.544186   1.215987 C.3        1 UNL1     0.2326
     6 O         -1.239977   -2.685278   1.692192 O.3        1 UNL1     -0.3076
     7 O         -3.338909   -1.569238   1.950473 O.3        1 UNL1     -0.4605
     8 C         -3.961159   -2.025822   3.098456 C.ar        1 UNL1     0.1310
     9 C         -4.692737   -3.213478   3.206002 C.ar        1 UNL1     0.0226
     10 C         -5.272633   -3.598836   4.420548 C.ar        1 UNL1     0.1343
     11 C         -5.114743   -2.816914   5.564012 C.ar        1 UNL1     0.1007
     12 C         -4.421076   -1.608343   5.459289 C.ar        1 UNL1     0.1389
     13 C         -3.840332   -1.219786   4.237327 C.ar        1 UNL1     0.0229
     14 C         -5.63462   -3.217828   6.891849 C.2        1 UNL1     0.1740
     15 C         -5.1837   -2.3737   8.04756 C.3        1 UNL1     0.0520
     16 C         -5.1908   -0.915275   7.610633 C.3        1 UNL1     0.1322
     17 O         -4.297587   -0.71019   6.493861 O.3        1 UNL1     -0.4828
     18 C         -6.594578   -0.337616   7.414563 C.ar        1 UNL1     -0.0067
     19 C         -7.072366   0.640491   8.310798 C.ar        1 UNL1     -0.0516
     20 C         -8.368594   1.155039   8.188339 C.ar        1 UNL1     -0.0198
     21 C         -9.197477   0.695348   7.180636 C.ar        1 UNL1     0.1169
     22 C         -8.744062   -0.242788   6.262402 C.ar        1 UNL1     -0.0198
     23 C         -7.441553   -0.743979   6.37346 C.ar        1 UNL1     -0.0516
     24 O         -10.466199   1.191854   7.115621 O.3        1 UNL1     -0.5068
     25 O         -6.324657   -4.217383   7.074124 O.2        1 UNL1     -0.2917
     26 O         -5.974569   -4.768214   4.458297 O.3        1 UNL1     -0.5058
     27 O         -0.46898   -0.5979   2.443871 O.3        1 UNL1     -0.3648
     28 O         0.538871   -1.81025   -0.802146 O.3        1 UNL1     -0.3841
     29 O         -2.443453   0.156035   -0.501633 O.3        1 UNL1     -0.3863
     30 O         -2.027904   -3.465751   -0.959991 O.3        1 UNL1     -0.3829
     31 H         0.633253   -2.031986   1.603355 H        1 UNL1     0.0937
     32 H         0.0   0.0   0.0 H        1 UNL1     0.0671
     33 H         -1.565241   -1.140569   -1.778856 H        1 UNL1     0.0649
     34 H         -3.599655   -2.181471   -0.656414 H        1 UNL1     0.0683
     35 H         -3.058355   -3.52407   1.32315 H        1 UNL1     0.1085
     36 H         -4.804382   -3.892322   2.367655 H        1 UNL1     0.0691
     37 H         -3.306261   -0.273649   4.181777 H        1 UNL1     0.0691
     38 H         -4.174397   -2.699052   8.321388 H        1 UNL1     0.0385
     39 H         -5.844608   -2.553041   8.902437 H        1 UNL1     0.0385
     40 H         -4.747411   -0.330373   8.427832 H        1 UNL1     0.0789
     41 H         -6.444413   1.011014   9.115806 H        1 UNL1     0.0623
     42 H         -8.729525   1.900256   8.89289 H        1 UNL1     0.0654
     43 H         -9.379681   -0.598616   5.460351 H        1 UNL1     0.0654
     44 H         -7.116832   -1.46802   5.632403 H        1 UNL1     0.0623
     45 H         -10.682491   1.593891   7.972535 H        1 UNL1     0.2921
     46 H         -5.807125   -5.218992   5.301015 H        1 UNL1     0.2922
     47 H         -1.399508   -0.419875   2.639537 H        1 UNL1     0.2126
     48 H         0.097376   -1.960812   -1.660135 H        1 UNL1     0.2101
     49 H         -3.07768   0.061608   0.226813 H        1 UNL1     0.2100
     50 H         -2.324169   -3.451284   -1.893656 H        1 UNL1     0.2102
@<TRIPOS>BOND
     1     1     2    1
     2     1     6    1
     3     2     3    1
     4     3     4    1
     5     3    29    1
     6     3    33    1
     7     4     5    1
     8     5     6    1
     9     5     7    1
    10     5    35    1
    11     7     8    1
    12     8     9   ar
    13     8    13   ar
    14     9    10   ar
    15     9    36    1
    16    10    11   ar
    17    10    26    1
    18    11    12   ar
    19    11    14    1
    20    12    13   ar
    21    12    17    1
    22    13    37    1
    23    14    15    1
    24    14    25    2
    25    15    16    1
    26    15    38    1
    27    15    39    1
    28    16    17    1
    29    16    18    1
    30    16    40    1
    31    18    19   ar
    32    18    23   ar
    33    19    20   ar
    34    19    41    1
    35    20    21   ar
    36    20    42    1
    37    21    22   ar
    38    21    24    1
    39    22    23   ar
    40    22    43    1
    41    23    44    1
    42    24    45    1
    43    26    46    1
    44    27    47    1
    45    28    48    1
    46    29    49    1
    47    30    50    1
    48     1    31    1
    49     1    27    1
    50     2    32    1
    51     2    28    1
    52     4    34    1
    53     4    30    1
