@<TRIPOS>MOLECULE
*****
 50 53 0 0 0
SMALL
GASTEIGER

@<TRIPOS>ATOM
     1 C         0.1892   -1.749986   1.293274 C.3        1 UNL1     0.1889
     2 C         -0.345887   -1.040922   0.020148 C.3        1 UNL1     0.1342
     3 C         -1.874524   -1.064051   -0.132167 C.3        1 UNL1     0.1174
     4 C         -2.504229   -2.354983   0.397063 C.3        1 UNL1     0.1456
     5 C         -1.958568   -2.753914   1.780346 C.3        1 UNL1     0.2326
     6 O         -0.54046   -2.889979   1.7227 O.3        1 UNL1     -0.3076
     7 O         -2.401368   -1.889374   2.842335 O.3        1 UNL1     -0.4605
     8 C         -2.563745   -2.484365   4.080538 C.ar        1 UNL1     0.1310
     9 C         -3.460158   -3.518351   4.371427 C.ar        1 UNL1     0.0226
     10 C         -3.538636   -4.068018   5.656577 C.ar        1 UNL1     0.1343
     11 C         -2.704963   -3.612745   6.677145 C.ar        1 UNL1     0.1007
     12 C         -1.8346   -2.552794   6.409273 C.ar        1 UNL1     0.1389
     13 C         -1.757748   -1.998492   5.117657 C.ar        1 UNL1     0.0229
     14 C         -2.686872   -4.214059   8.030751 C.2        1 UNL1     0.1740
     15 C         -1.578566   -3.75317   8.931188 C.3        1 UNL1     0.0520
     16 C         -1.391116   -2.254874   8.736431 C.3        1 UNL1     0.1322
     17 O         -1.04712   -1.95502   7.365729 O.3        1 UNL1     -0.4828
     18 C         -2.53671   -1.411928   9.301923 C.ar        1 UNL1     -0.0067
     19 C         -3.769584   -1.371703   8.618829 C.ar        1 UNL1     -0.0516
     20 C         -4.822195   -0.573804   9.082864 C.ar        1 UNL1     -0.0198
     21 C         -4.652392   0.192433   10.222107 C.ar        1 UNL1     0.1169
     22 C         -3.461448   0.14818   10.935223 C.ar        1 UNL1     -0.0198
     23 C         -2.415006   -0.663822   10.481719 C.ar        1 UNL1     -0.0516
     24 O         -5.686744   0.986211   10.622647 O.3        1 UNL1     -0.5068
     25 O         -3.465971   -5.092632   8.39075 O.2        1 UNL1     -0.2917
     26 O         -4.434733   -5.073475   5.874868 O.3        1 UNL1     -0.5058
     27 O         0.451773   -0.861066   2.367361 O.3        1 UNL1     -0.3648
     28 O         0.209665   -1.69679   -1.1348 O.3        1 UNL1     -0.3841
     29 O         -2.458513   0.109966   0.435966 O.3        1 UNL1     -0.3863
     30 O         -2.239258   -3.427355   -0.533259 O.3        1 UNL1     -0.3829
     31 H         1.172383   -2.157875   1.034321 H        1 UNL1     0.0937
     32 H         0.0   0.0   0.0 H        1 UNL1     0.0671
     33 H         -2.105369   -1.014625   -1.205474 H        1 UNL1     0.0649
     34 H         -3.592561   -2.243379   0.456037 H        1 UNL1     0.0683
     35 H         -2.368793   -3.757806   1.947061 H        1 UNL1     0.1085
     36 H         -4.095461   -3.953878   3.607996 H        1 UNL1     0.0691
     37 H         -1.072738   -1.173276   4.935246 H        1 UNL1     0.0691
     38 H         -0.674105   -4.303979   8.651751 H        1 UNL1     0.0385
     39 H         -1.828021   -4.008074   9.96684 H        1 UNL1     0.0385
     40 H         -0.50301   -1.962148   9.312712 H        1 UNL1     0.0789
     41 H         -3.924857   -1.956876   7.717101 H        1 UNL1     0.0623
     42 H         -5.76401   -0.542145   8.540651 H        1 UNL1     0.0654
     43 H         -3.322995   0.732622   11.836982 H        1 UNL1     0.0654
     44 H         -1.502268   -0.682223   11.06944 H        1 UNL1     0.0623
     45 H         -5.446808   1.911572   10.452782 H        1 UNL1     0.2921
     46 H         -4.011637   -5.777402   6.391481 H        1 UNL1     0.2922
     47 H         1.059264   -0.163606   2.083876 H        1 UNL1     0.2126
     48 H         -0.371396   -2.456685   -1.331419 H        1 UNL1     0.2101
     49 H         -3.122614   -0.139197   1.098297 H        1 UNL1     0.2100
     50 H         -2.749977   -3.250718   -1.350374 H        1 UNL1     0.2102
@<TRIPOS>BOND
     1     1     2    1
     2     1     6    1
     3     2     3    1
     4     3     4    1
     5     3    29    1
     6     3    33    1
     7     4     5    1
     8     5     6    1
     9     5     7    1
    10     5    35    1
    11     7     8    1
    12     8     9   ar
    13     8    13   ar
    14     9    10   ar
    15     9    36    1
    16    10    11   ar
    17    10    26    1
    18    11    12   ar
    19    11    14    1
    20    12    13   ar
    21    12    17    1
    22    13    37    1
    23    14    15    1
    24    14    25    2
    25    15    16    1
    26    15    38    1
    27    15    39    1
    28    16    17    1
    29    16    18    1
    30    16    40    1
    31    18    19   ar
    32    18    23   ar
    33    19    20   ar
    34    19    41    1
    35    20    21   ar
    36    20    42    1
    37    21    22   ar
    38    21    24    1
    39    22    23   ar
    40    22    43    1
    41    23    44    1
    42    24    45    1
    43    26    46    1
    44    27    47    1
    45    28    48    1
    46    29    49    1
    47    30    50    1
    48     1    31    1
    49     1    27    1
    50     2    32    1
    51     2    28    1
    52     4    34    1
    53     4    30    1
