@<TRIPOS>MOLECULE
*****
 50 53 0 0 0
SMALL
GASTEIGER

@<TRIPOS>ATOM
     1 C         -1.361868   1.201232   1.213738 C.3        1 UNL1     0.1889
     2 C         -0.064943   1.0277   0.378387 C.3        1 UNL1     0.1342
     3 C         1.23164   1.368197   1.128987 C.3        1 UNL1     0.1174
     4 C         1.058463   2.522474   2.119326 C.3        1 UNL1     0.1456
     5 C         -0.203331   2.37033   2.988286 C.3        1 UNL1     0.2326
     6 O         -1.356344   2.263139   2.156457 O.3        1 UNL1     -0.3076
     7 O         -0.106198   1.312955   3.959803 O.3        1 UNL1     -0.4605
     8 C         1.010312   0.501984   3.863578 C.ar        1 UNL1     0.1310
     9 C         1.918197   0.247064   4.897049 C.ar        1 UNL1     0.0226
     10 C         3.012221   -0.605179   4.705491 C.ar        1 UNL1     0.1343
     11 C         3.211748   -1.242538   3.481643 C.ar        1 UNL1     0.1007
     12 C         2.335073   -0.963772   2.429733 C.ar        1 UNL1     0.1389
     13 C         1.236616   -0.104743   2.62181 C.ar        1 UNL1     0.0229
     14 C         4.302602   -2.217442   3.249794 C.2        1 UNL1     0.1740
     15 C         4.235313   -2.97108   1.954012 C.3        1 UNL1     0.0520
     16 C         3.798743   -2.008004   0.858636 C.3        1 UNL1     0.1322
     17 O         2.498879   -1.450937   1.153761 O.3        1 UNL1     -0.4828
     18 C         4.863394   -0.972613   0.488222 C.ar        1 UNL1     -0.0067
     19 C         5.064592   -0.64069   -0.867345 C.ar        1 UNL1     -0.0516
     20 C         6.061813   0.266723   -1.244326 C.ar        1 UNL1     -0.0198
     21 C         6.86747   0.842132   -0.278071 C.ar        1 UNL1     0.1169
     22 C         6.671632   0.560732   1.067775 C.ar        1 UNL1     -0.0198
     23 C         5.662362   -0.332559   1.44654 C.ar        1 UNL1     -0.0516
     24 O         7.852966   1.692262   -0.686086 O.3        1 UNL1     -0.5068
     25 O         5.171331   -2.470205   4.080399 O.2        1 UNL1     -0.2917
     26 O         3.861202   -0.811088   5.753546 O.3        1 UNL1     -0.5058
     27 O         -1.829364   -0.008072   1.789775 O.3        1 UNL1     -0.3648
     28 O         -0.139155   1.898836   -0.765431 O.3        1 UNL1     -0.3841
     29 O         1.789566   0.199547   1.733228 O.3        1 UNL1     -0.3863
     30 O         0.971443   3.764903   1.38824 O.3        1 UNL1     -0.3829
     31 H         -2.151193   1.487567   0.510135 H        1 UNL1     0.0937
     32 H         0.0   0.0   0.0 H        1 UNL1     0.0671
     33 H         1.973008   1.695011   0.386501 H        1 UNL1     0.0649
     34 H         1.938225   2.593473   2.768464 H        1 UNL1     0.0683
     35 H         -0.278563   3.329546   3.515659 H        1 UNL1     0.1085
     36 H         1.787048   0.667807   5.887956 H        1 UNL1     0.0691
     37 H         0.569372   0.096835   1.786559 H        1 UNL1     0.0691
     38 H         3.509508   -3.781611   2.079607 H        1 UNL1     0.0385
     39 H         5.213995   -3.417334   1.74709 H        1 UNL1     0.0385
     40 H         3.642419   -2.602499   -0.051671 H        1 UNL1     0.0789
     41 H         4.451415   -1.085694   -1.64557 H        1 UNL1     0.0623
     42 H         6.214964   0.505459   -2.293879 H        1 UNL1     0.0654
     43 H         7.286967   1.01721   1.833869 H        1 UNL1     0.0654
     44 H         5.530471   -0.521217   2.507605 H        1 UNL1     0.0623
     45 H         8.512739   1.181292   -1.182398 H        1 UNL1     0.2921
     46 H         4.702734   -0.359752   5.581699 H        1 UNL1     0.2922
     47 H         -2.597323   0.163989   2.352353 H        1 UNL1     0.2126
     48 H         -1.046909   2.258481   -0.784665 H        1 UNL1     0.2101
     49 H         1.3521   0.025968   2.581926 H        1 UNL1     0.2100
     50 H         1.66339   3.755803   0.694814 H        1 UNL1     0.2102
@<TRIPOS>BOND
     1     1     2    1
     2     1     6    1
     3     2     3    1
     4     3     4    1
     5     3    29    1
     6     3    33    1
     7     4     5    1
     8     5     6    1
     9     5     7    1
    10     5    35    1
    11     7     8    1
    12     8     9   ar
    13     8    13   ar
    14     9    10   ar
    15     9    36    1
    16    10    11   ar
    17    10    26    1
    18    11    12   ar
    19    11    14    1
    20    12    13   ar
    21    12    17    1
    22    13    37    1
    23    14    15    1
    24    14    25    2
    25    15    16    1
    26    15    38    1
    27    15    39    1
    28    16    17    1
    29    16    18    1
    30    16    40    1
    31    18    19   ar
    32    18    23   ar
    33    19    20   ar
    34    19    41    1
    35    20    21   ar
    36    20    42    1
    37    21    22   ar
    38    21    24    1
    39    22    23   ar
    40    22    43    1
    41    23    44    1
    42    24    45    1
    43    26    46    1
    44    27    47    1
    45    28    48    1
    46    29    49    1
    47    30    50    1
    48     1    31    1
    49     1    27    1
    50     2    32    1
    51     2    28    1
    52     4    34    1
    53     4    30    1
