@<TRIPOS>MOLECULE
*****
 50 53 0 0 0
SMALL
GASTEIGER

@<TRIPOS>ATOM
     1 C         -0.002975   -1.106386   1.88327 C.3        1 UNL1     0.1889
     2 C         -0.265072   -1.003045   0.35665 C.3        1 UNL1     0.1342
     3 C         -1.706325   -1.32179   -0.06956 C.3        1 UNL1     0.1174
     4 C         -2.350805   -2.414235   0.787368 C.3        1 UNL1     0.1456
     5 C         -2.127222   -2.191149   2.294222 C.3        1 UNL1     0.2326
     6 O         -0.730979   -2.112383   2.572019 O.3        1 UNL1     -0.3076
     7 O         -2.873521   -1.081557   2.826355 O.3        1 UNL1     -0.4605
     8 C         -3.276425   -1.198408   4.144513 C.ar        1 UNL1     0.1310
     9 C         -3.862931   -2.333228   4.715036 C.ar        1 UNL1     0.0226
     10 C         -4.221712   -2.359855   6.067984 C.ar        1 UNL1     0.1343
     11 C         -3.980622   -1.259609   6.889675 C.ar        1 UNL1     0.1007
     12 C         -3.433128   -0.106014   6.322003 C.ar        1 UNL1     0.1389
     13 C         -3.074893   -0.078559   4.960994 C.ar        1 UNL1     0.0229
     14 C         -4.262541   -1.263388   8.343862 C.2        1 UNL1     0.1740
     15 C         -3.737366   -0.084994   9.110104 C.3        1 UNL1     0.0520
     16 C         -3.952354   1.168517   8.273176 C.3        1 UNL1     0.1322
     17 O         -3.253087   1.069803   7.012878 O.3        1 UNL1     -0.4828
     18 C         -5.420289   1.585059   8.153237 C.ar        1 UNL1     -0.0067
     19 C         -5.952641   1.888057   6.883196 C.ar        1 UNL1     -0.0516
     20 C         -7.277714   2.31779   6.743641 C.ar        1 UNL1     -0.0198
     21 C         -8.07664   2.455306   7.864638 C.ar        1 UNL1     0.1169
     22 C         -7.591109   2.13249   9.125149 C.ar        1 UNL1     -0.0198
     23 C         -6.271687   1.685068   9.262973 C.ar        1 UNL1     -0.0516
     24 O         -9.350274   2.912547   7.69379 O.3        1 UNL1     -0.5068
     25 O         -4.816213   -2.194386   8.922806 O.2        1 UNL1     -0.2917
     26 O         -4.790841   -3.497014   6.5625 O.3        1 UNL1     -0.5058
     27 O         -0.071191   0.141718   2.554365 O.3        1 UNL1     -0.3648
     28 O         0.597802   -1.937007   -0.318531 O.3        1 UNL1     -0.3841
     29 O         -2.492513   -0.129995   -0.130095 O.3        1 UNL1     -0.3863
     30 O         -1.793452   -3.694923   0.420099 O.3        1 UNL1     -0.3829
     31 H         1.040252   -1.419234   2.001093 H        1 UNL1     0.0937
     32 H         0.0   0.0   0.0 H        1 UNL1     0.0671
     33 H         -1.674808   -1.703171   -1.099742 H        1 UNL1     0.0649
     34 H         -3.426419   -2.462737   0.584631 H        1 UNL1     0.0683
     35 H         -2.49252   -3.117109   2.755778 H        1 UNL1     0.1085
     36 H         -4.025108   -3.240072   4.142801 H        1 UNL1     0.0691
     37 H         -2.651334   0.832127   4.542973 H        1 UNL1     0.0691
     38 H         -2.671901   -0.258432   9.295117 H        1 UNL1     0.0385
     39 H         -4.247932   -0.029497   10.077586 H        1 UNL1     0.0385
     40 H         -3.457174   1.996849   8.797754 H        1 UNL1     0.0789
     41 H         -5.343196   1.796941   5.98881 H        1 UNL1     0.0623
     42 H         -7.672996   2.559791   5.760178 H        1 UNL1     0.0654
     43 H         -8.212742   2.222159   10.008009 H        1 UNL1     0.0654
     44 H         -5.92871   1.431644   10.261466 H        1 UNL1     0.0623
     45 H         -9.307676   3.798496   7.298826 H        1 UNL1     0.2921
     46 H         -4.267037   -3.821377   7.312053 H        1 UNL1     0.2922
     47 H         0.543347   0.771785   2.152845 H        1 UNL1     0.2126
     48 H         1.51442   -1.667874   -0.115772 H        1 UNL1     0.2101
     49 H         -2.198402   0.422036   -0.872089 H        1 UNL1     0.2100
     50 H         -2.063187   -3.887965   -0.501688 H        1 UNL1     0.2102
@<TRIPOS>BOND
     1     1     2    1
     2     1     6    1
     3     2     3    1
     4     3     4    1
     5     3    29    1
     6     3    33    1
     7     4     5    1
     8     5     6    1
     9     5     7    1
    10     5    35    1
    11     7     8    1
    12     8     9   ar
    13     8    13   ar
    14     9    10   ar
    15     9    36    1
    16    10    11   ar
    17    10    26    1
    18    11    12   ar
    19    11    14    1
    20    12    13   ar
    21    12    17    1
    22    13    37    1
    23    14    15    1
    24    14    25    2
    25    15    16    1
    26    15    38    1
    27    15    39    1
    28    16    17    1
    29    16    18    1
    30    16    40    1
    31    18    19   ar
    32    18    23   ar
    33    19    20   ar
    34    19    41    1
    35    20    21   ar
    36    20    42    1
    37    21    22   ar
    38    21    24    1
    39    22    23   ar
    40    22    43    1
    41    23    44    1
    42    24    45    1
    43    26    46    1
    44    27    47    1
    45    28    48    1
    46    29    49    1
    47    30    50    1
    48     1    31    1
    49     1    27    1
    50     2    32    1
    51     2    28    1
    52     4    34    1
    53     4    30    1
