@<TRIPOS>MOLECULE
*****
 50 53 0 0 0
SMALL
GASTEIGER

@<TRIPOS>ATOM
     1 C         1.74305   -0.990636   0.86673 C.3        1 UNL1     0.1889
     2 C         0.212662   -0.746862   0.774942 C.3        1 UNL1     0.1342
     3 C         -0.446398   -0.305375   2.090691 C.3        1 UNL1     0.1174
     4 C         0.195209   -0.950616   3.321594 C.3        1 UNL1     0.1456
     5 C         1.733227   -0.891257   3.285003 C.3        1 UNL1     0.2326
     6 O         2.215695   -1.516772   2.098064 O.3        1 UNL1     -0.3076
     7 O         2.260568   0.433443   3.480966 O.3        1 UNL1     -0.4605
     8 C         3.638622   0.548647   3.446013 C.ar        1 UNL1     0.1310
     9 C         4.356361   1.739742   3.599125 C.ar        1 UNL1     0.0226
     10 C         5.755873   1.75085   3.565277 C.ar        1 UNL1     0.1343
     11 C         6.472916   0.566475   3.401124 C.ar        1 UNL1     0.1007
     12 C         5.766555   -0.62341   3.206157 C.ar        1 UNL1     0.1389
     13 C         4.359312   -0.633929   3.23759 C.ar        1 UNL1     0.0229
     14 C         7.952503   0.50866   3.441549 C.2        1 UNL1     0.1740
     15 C         8.547868   -0.868346   3.472266 C.3        1 UNL1     0.0520
     16 C         7.7542   -1.757632   2.52505 C.3        1 UNL1     0.1322
     17 O         6.368762   -1.828566   2.928287 O.3        1 UNL1     -0.4828
     18 C         7.968254   -1.427948   1.045789 C.ar        1 UNL1     -0.0067
     19 C         9.149252   -1.855343   0.404858 C.ar        1 UNL1     -0.0516
     20 C         9.398045   -1.530071   -0.933896 C.ar        1 UNL1     -0.0198
     21 C         8.479178   -0.773414   -1.638865 C.ar        1 UNL1     0.1169
     22 C         7.291541   -0.366279   -1.045065 C.ar        1 UNL1     -0.0198
     23 C         7.034013   -0.707086   0.288197 C.ar        1 UNL1     -0.0516
     24 O         8.773144   -0.444041   -2.929406 O.3        1 UNL1     -0.5068
     25 O         8.665985   1.504762   3.52646 O.2        1 UNL1     -0.2917
     26 O         6.395724   2.94597   3.719757 O.3        1 UNL1     -0.5058
     27 O         2.518713   0.117385   0.438451 O.3        1 UNL1     -0.3648
     28 O         -0.421162   -1.974146   0.36905 O.3        1 UNL1     -0.3841
     29 O         -0.500071   1.120001   2.177607 O.3        1 UNL1     -0.3863
     30 O         -0.214143   -2.333401   3.399234 O.3        1 UNL1     -0.3829
     31 H         1.978024   -1.779715   0.144082 H        1 UNL1     0.0937
     32 H         0.0   0.0   0.0 H        1 UNL1     0.0671
     33 H         -1.494214   -0.635983   2.068346 H        1 UNL1     0.0649
     34 H         -0.164157   -0.458337   4.232044 H        1 UNL1     0.0683
     35 H         2.042441   -1.523288   4.126907 H        1 UNL1     0.1085
     36 H         3.859008   2.685193   3.785894 H        1 UNL1     0.0691
     37 H         3.832982   -1.573228   3.08207 H        1 UNL1     0.0691
     38 H         8.484706   -1.233551   4.502879 H        1 UNL1     0.0385
     39 H         9.605809   -0.808247   3.194908 H        1 UNL1     0.0385
     40 H         8.129815   -2.782022   2.65177 H        1 UNL1     0.0789
     41 H         9.890412   -2.442599   0.939144 H        1 UNL1     0.0623
     42 H         10.317937   -1.855422   -1.413435 H        1 UNL1     0.0654
     43 H         6.558213   0.213834   -1.59243 H        1 UNL1     0.0654
     44 H         6.09125   -0.381313   0.71705 H        1 UNL1     0.0623
     45 H         8.35078   0.406241   -3.132745 H        1 UNL1     0.2921
     46 H         6.478342   3.148902   4.664958 H        1 UNL1     0.2922
     47 H         3.258225   -0.182894   -0.108187 H        1 UNL1     0.2126
     48 H         -0.793271   -2.37727   1.176985 H        1 UNL1     0.2101
     49 H         0.3628   1.497608   1.94381 H        1 UNL1     0.2100
     50 H         0.019129   -2.667329   4.290182 H        1 UNL1     0.2102
@<TRIPOS>BOND
     1     1     2    1
     2     1     6    1
     3     2     3    1
     4     3     4    1
     5     3    29    1
     6     3    33    1
     7     4     5    1
     8     5     6    1
     9     5     7    1
    10     5    35    1
    11     7     8    1
    12     8     9   ar
    13     8    13   ar
    14     9    10   ar
    15     9    36    1
    16    10    11   ar
    17    10    26    1
    18    11    12   ar
    19    11    14    1
    20    12    13   ar
    21    12    17    1
    22    13    37    1
    23    14    15    1
    24    14    25    2
    25    15    16    1
    26    15    38    1
    27    15    39    1
    28    16    17    1
    29    16    18    1
    30    16    40    1
    31    18    19   ar
    32    18    23   ar
    33    19    20   ar
    34    19    41    1
    35    20    21   ar
    36    20    42    1
    37    21    22   ar
    38    21    24    1
    39    22    23   ar
    40    22    43    1
    41    23    44    1
    42    24    45    1
    43    26    46    1
    44    27    47    1
    45    28    48    1
    46    29    49    1
    47    30    50    1
    48     1    31    1
    49     1    27    1
    50     2    32    1
    51     2    28    1
    52     4    34    1
    53     4    30    1
