@<TRIPOS>MOLECULE
*****
 50 53 0 0 0
SMALL
GASTEIGER

@<TRIPOS>ATOM
     1 C         0.69805   -1.440761   1.485846 C.3        1 UNL1     0.1889
     2 C         -0.427052   -0.774573   0.649019 C.3        1 UNL1     0.1342
     3 C         -1.565751   -0.161506   1.478462 C.3        1 UNL1     0.1174
     4 C         -1.870047   -0.958708   2.749285 C.3        1 UNL1     0.1456
     5 C         -0.596814   -1.336605   3.528025 C.3        1 UNL1     0.2326
     6 O         0.285832   -2.075956   2.687095 O.3        1 UNL1     -0.3076
     7 O         0.03827   -0.214501   4.167456 O.3        1 UNL1     -0.4605
     8 C         -0.081975   1.001049   3.51822 C.ar        1 UNL1     0.1310
     9 C         -0.797962   1.2213   2.336631 C.ar        1 UNL1     0.0226
     10 C         -0.874726   2.496448   1.763912 C.ar        1 UNL1     0.1343
     11 C         -0.256524   3.58797   2.372392 C.ar        1 UNL1     0.1007
     12 C         0.495511   3.372906   3.530396 C.ar        1 UNL1     0.1389
     13 C         0.574738   2.090168   4.104623 C.ar        1 UNL1     0.0229
     14 C         -0.375045   4.971382   1.85637 C.2        1 UNL1     0.1740
     15 C         0.163024   6.047252   2.753328 C.3        1 UNL1     0.0520
     16 C         1.460947   5.551229   3.375674 C.3        1 UNL1     0.1322
     17 O         1.232935   4.354078   4.151503 O.3        1 UNL1     -0.4828
     18 C         2.621879   5.452386   2.383106 C.ar        1 UNL1     -0.0067
     19 C         3.178235   6.632533   1.848378 C.ar        1 UNL1     -0.0516
     20 C         4.208951   6.576347   0.902634 C.ar        1 UNL1     -0.0198
     21 C         4.685929   5.348823   0.478954 C.ar        1 UNL1     0.1169
     22 C         4.181259   4.169811   1.011944 C.ar        1 UNL1     -0.0198
     23 C         3.163221   4.226086   1.971365 C.ar        1 UNL1     -0.0516
     24 O         5.664236   5.332818   -0.47134 O.3        1 UNL1     -0.5068
     25 O         -0.943519   5.254483   0.805097 O.2        1 UNL1     -0.2917
     26 O         -1.588031   2.643898   0.610206 O.3        1 UNL1     -0.5058
     27 O         1.819795   -0.598254   1.697166 O.3        1 UNL1     -0.3648
     28 O         -1.010885   -1.77366   -0.207527 O.3        1 UNL1     -0.3841
     29 O         -1.315657   1.221127   1.739064 O.3        1 UNL1     -0.3863
     30 O         -2.572228   -2.169193   2.392415 O.3        1 UNL1     -0.3829
     31 H         1.090574   -2.265886   0.881551 H        1 UNL1     0.0937
     32 H         0.0   0.0   0.0 H        1 UNL1     0.0671
     33 H         -2.47686   -0.182506   0.864329 H        1 UNL1     0.0649
     34 H         -2.535474   -0.382647   3.401788 H        1 UNL1     0.0683
     35 H         -0.954938   -2.028154   4.300932 H        1 UNL1     0.1085
     36 H         -1.346747   0.425147   1.845615 H        1 UNL1     0.0691
     37 H         1.167556   1.948886   5.005788 H        1 UNL1     0.0691
     38 H         -0.592151   6.246755   3.521076 H        1 UNL1     0.0385
     39 H         0.307195   6.962639   2.169326 H        1 UNL1     0.0385
     40 H         1.773289   6.301766   4.114361 H        1 UNL1     0.0789
     41 H         2.815012   7.608204   2.15787 H        1 UNL1     0.0623
     42 H         4.621535   7.493199   0.48891 H        1 UNL1     0.0654
     43 H         4.557859   3.203507   0.698355 H        1 UNL1     0.0654
     44 H         2.799778   3.285607   2.374172 H        1 UNL1     0.0623
     45 H         6.517422   5.188958   -0.030778 H        1 UNL1     0.2921
     46 H         -1.747429   3.586906   0.446682 H        1 UNL1     0.2922
     47 H         2.584515   -0.929387   1.205828 H        1 UNL1     0.2126
     48 H         -1.977043   -1.633486   -0.182586 H        1 UNL1     0.2101
     49 H         -0.935154   1.32629   2.625604 H        1 UNL1     0.2100
     50 H         -3.505045   -1.933448   2.208052 H        1 UNL1     0.2102
@<TRIPOS>BOND
     1     1     2    1
     2     1     6    1
     3     2     3    1
     4     3     4    1
     5     3    29    1
     6     3    33    1
     7     4     5    1
     8     5     6    1
     9     5     7    1
    10     5    35    1
    11     7     8    1
    12     8     9   ar
    13     8    13   ar
    14     9    10   ar
    15     9    36    1
    16    10    11   ar
    17    10    26    1
    18    11    12   ar
    19    11    14    1
    20    12    13   ar
    21    12    17    1
    22    13    37    1
    23    14    15    1
    24    14    25    2
    25    15    16    1
    26    15    38    1
    27    15    39    1
    28    16    17    1
    29    16    18    1
    30    16    40    1
    31    18    19   ar
    32    18    23   ar
    33    19    20   ar
    34    19    41    1
    35    20    21   ar
    36    20    42    1
    37    21    22   ar
    38    21    24    1
    39    22    23   ar
    40    22    43    1
    41    23    44    1
    42    24    45    1
    43    26    46    1
    44    27    47    1
    45    28    48    1
    46    29    49    1
    47    30    50    1
    48     1    31    1
    49     1    27    1
    50     2    32    1
    51     2    28    1
    52     4    34    1
    53     4    30    1
