@<TRIPOS>MOLECULE
*****
 50 53 0 0 0
SMALL
GASTEIGER

@<TRIPOS>ATOM
     1 C         -0.370668   -1.397909   1.636844 C.3        1 UNL1     0.1889
     2 C         -0.487796   -0.971325   0.14881 C.3        1 UNL1     0.1342
     3 C         -1.92632   -0.896743   -0.385561 C.3        1 UNL1     0.1174
     4 C         -2.841285   -1.962759   0.222358 C.3        1 UNL1     0.1456
     5 C         -2.694716   -2.063977   1.751618 C.3        1 UNL1     0.2326
     6 O         -1.33684   -2.333229   2.093006 O.3        1 UNL1     -0.3076
     7 O         -3.241974   -0.934469   2.455919 O.3        1 UNL1     -0.4605
     8 C         -3.771098   -1.198212   3.706517 C.ar        1 UNL1     0.1310
     9 C         -4.617331   -2.267489   4.019306 C.ar        1 UNL1     0.0226
     10 C         -5.088467   -2.46006   5.323472 C.ar        1 UNL1     0.1343
     11 C         -4.705248   -1.600845   6.35242 C.ar        1 UNL1     0.1007
     12 C         -3.893632   -0.505818   6.044234 C.ar        1 UNL1     0.1389
     13 C         -3.422177   -0.310891   4.732302 C.ar        1 UNL1     0.0229
     14 C         -5.10545   -1.805801   7.763797 C.2        1 UNL1     0.1740
     15 C         -4.424618   -0.921388   8.766708 C.3        1 UNL1     0.0520
     16 C         -4.314744   0.478545   8.17843 C.3        1 UNL1     0.1322
     17 O         -3.543883   0.462332   6.956718 O.3        1 UNL1     -0.4828
     18 C         -5.655351   1.209557   8.072975 C.ar        1 UNL1     -0.0067
     19 C         -5.67419   2.573576   7.716168 C.ar        1 UNL1     -0.0516
     20 C         -6.879092   3.283966   7.656837 C.ar        1 UNL1     -0.0198
     21 C         -8.06846   2.645044   7.958513 C.ar        1 UNL1     0.1169
     22 C         -8.085672   1.294201   8.280641 C.ar        1 UNL1     -0.0198
     23 C         -6.882838   0.578988   8.322076 C.ar        1 UNL1     -0.0516
     24 O         -9.217919   3.378629   7.926929 O.3        1 UNL1     -0.5068
     25 O         -5.879962   -2.687636   8.125715 O.2        1 UNL1     -0.2917
     26 O         -5.911705   -3.52162   5.562125 O.3        1 UNL1     -0.5058
     27 O         -0.238665   -0.303534   2.529988 O.3        1 UNL1     -0.3648
     28 O         0.219627   -1.931256   -0.657907 O.3        1 UNL1     -0.3841
     29 O         -2.450188   0.425726   -0.248555 O.3        1 UNL1     -0.3863
     30 O         -2.525645   -3.246056   -0.360059 O.3        1 UNL1     -0.3829
     31 H         0.576222   -1.940309   1.733174 H        1 UNL1     0.0937
     32 H         0.0   0.0   0.0 H        1 UNL1     0.0671
     33 H         -1.892408   -1.0865   -1.467487 H        1 UNL1     0.0649
     34 H         -3.88577   -1.745642   -0.027266 H        1 UNL1     0.0683
     35 H         -3.273033   -2.958691   2.014134 H        1 UNL1     0.1085
     36 H         -4.906482   -3.002194   3.275855 H        1 UNL1     0.0691
     37 H         -2.79248   0.549982   4.518124 H        1 UNL1     0.0691
     38 H         -3.434399   -1.345669   8.964141 H        1 UNL1     0.0385
     39 H         -4.99478   -0.933959   9.701874 H        1 UNL1     0.0385
     40 H         -3.711916   1.076199   8.875515 H        1 UNL1     0.0789
     41 H         -4.753143   3.10016   7.483718 H        1 UNL1     0.0623
     42 H         -6.879286   4.338419   7.391997 H        1 UNL1     0.0654
     43 H         -9.013004   0.780319   8.504002 H        1 UNL1     0.0654
     44 H         -6.934565   -0.477482   8.567108 H        1 UNL1     0.0623
     45 H         -9.172427   4.050271   8.626604 H        1 UNL1     0.2921
     46 H         -5.540285   -4.065241   6.274821 H        1 UNL1     0.2922
     47 H         0.506463   0.254825   2.267539 H        1 UNL1     0.2126
     48 H         1.17179   -1.779295   -0.502902 H        1 UNL1     0.2101
     49 H         -2.134559   0.982904   -0.977749 H        1 UNL1     0.2100
     50 H         -2.782744   -3.219743   -1.305004 H        1 UNL1     0.2102
@<TRIPOS>BOND
     1     1     2    1
     2     1     6    1
     3     2     3    1
     4     3     4    1
     5     3    29    1
     6     3    33    1
     7     4     5    1
     8     5     6    1
     9     5     7    1
    10     5    35    1
    11     7     8    1
    12     8     9   ar
    13     8    13   ar
    14     9    10   ar
    15     9    36    1
    16    10    11   ar
    17    10    26    1
    18    11    12   ar
    19    11    14    1
    20    12    13   ar
    21    12    17    1
    22    13    37    1
    23    14    15    1
    24    14    25    2
    25    15    16    1
    26    15    38    1
    27    15    39    1
    28    16    17    1
    29    16    18    1
    30    16    40    1
    31    18    19   ar
    32    18    23   ar
    33    19    20   ar
    34    19    41    1
    35    20    21   ar
    36    20    42    1
    37    21    22   ar
    38    21    24    1
    39    22    23   ar
    40    22    43    1
    41    23    44    1
    42    24    45    1
    43    26    46    1
    44    27    47    1
    45    28    48    1
    46    29    49    1
    47    30    50    1
    48     1    31    1
    49     1    27    1
    50     2    32    1
    51     2    28    1
    52     4    34    1
    53     4    30    1
