@<TRIPOS>MOLECULE
*****
 50 53 0 0 0
SMALL
GASTEIGER

@<TRIPOS>ATOM
     1 C         -0.505813   -1.189517   1.760683 C.3        1 UNL1     0.1889
     2 C         -0.50494   -0.947056   0.227337 C.3        1 UNL1     0.1342
     3 C         -1.897487   -0.940867   -0.421692 C.3        1 UNL1     0.1174
     4 C         -2.864345   -1.927027   0.238454 C.3        1 UNL1     0.1456
     5 C         -2.836642   -1.841464   1.775424 C.3        1 UNL1     0.2326
     6 O         -1.511084   -2.064485   2.250845 O.3        1 UNL1     -0.3076
     7 O         -3.428145   -0.635899   2.293168 O.3        1 UNL1     -0.4605
     8 C         -4.04401   -0.744281   3.527061 C.ar        1 UNL1     0.1310
     9 C         -4.918759   -1.76711   3.909077 C.ar        1 UNL1     0.0226
     10 C         -5.479844   -1.79829   5.191307 C.ar        1 UNL1     0.1343
     11 C         -5.160801   -0.819393   6.13142 C.ar        1 UNL1     0.1007
     12 C         -4.320684   0.229557   5.748419 C.ar        1 UNL1     0.1389
     13 C         -3.758728   0.262123   4.458235 C.ar        1 UNL1     0.0229
     14 C         -5.658579   -0.849719   7.526215 C.2        1 UNL1     0.1740
     15 C         -5.040636   0.150986   8.458033 C.3        1 UNL1     0.0520
     16 C         -4.878783   1.468212   7.711926 C.3        1 UNL1     0.1322
     17 O         -4.026118   1.302287   6.557586 O.3        1 UNL1     -0.4828
     18 C         -6.202739   2.18081   7.425451 C.ar        1 UNL1     -0.0067
     19 C         -6.46364   2.661039   6.125633 C.ar        1 UNL1     -0.0516
     20 C         -7.64358   3.358665   5.840988 C.ar        1 UNL1     -0.0198
     21 C         -8.565091   3.588429   6.846897 C.ar        1 UNL1     0.1169
     22 C         -8.351893   3.098918   8.12899 C.ar        1 UNL1     -0.0198
     23 C         -7.180559   2.385255   8.409557 C.ar        1 UNL1     -0.0516
     24 O         -9.685051   4.304356   6.541052 O.3        1 UNL1     -0.5068
     25 O         -6.463554   -1.680497   7.938898 O.2        1 UNL1     -0.2917
     26 O         -6.326503   -2.822551   5.500567 O.3        1 UNL1     -0.5058
     27 O         -0.434878   0.005498   2.522059 O.3        1 UNL1     -0.3648
     28 O         0.255379   -1.99641   -0.399942 O.3        1 UNL1     -0.3841
     29 O         -2.420594   0.387378   -0.486936 O.3        1 UNL1     -0.3863
     30 O         -2.51428   -3.270912   -0.157925 O.3        1 UNL1     -0.3829
     31 H         0.426837   -1.714267   1.99495 H        1 UNL1     0.0937
     32 H         0.0   0.0   0.0 H        1 UNL1     0.0671
     33 H         -1.781816   -1.260551   -1.466748 H        1 UNL1     0.0649
     34 H         -3.884896   -1.743969   -0.115616 H        1 UNL1     0.0683
     35 H         -3.440018   -2.698852   2.099002 H        1 UNL1     0.1085
     36 H         -5.162478   -2.58743   3.242897 H        1 UNL1     0.0691
     37 H         -3.108532   1.090219   4.184383 H        1 UNL1     0.0691
     38 H         -4.06993   -0.245907   8.773838 H        1 UNL1     0.0385
     39 H         -5.673674   0.253201   9.346061 H        1 UNL1     0.0385
     40 H         -4.320121   2.146822   8.370641 H        1 UNL1     0.0789
     41 H         -5.751953   2.501586   5.320819 H        1 UNL1     0.0623
     42 H         -7.82777   3.734294   4.8375 H        1 UNL1     0.0654
     43 H         -9.073883   3.260121   8.920605 H        1 UNL1     0.0654
     44 H         -7.051579   2.008196   9.419525 H        1 UNL1     0.0623
     45 H         -9.412664   5.187041   6.242073 H        1 UNL1     0.2921
     46 H         -5.99744   -3.288533   6.285418 H        1 UNL1     0.2922
     47 H         0.342316   0.520844   2.264674 H        1 UNL1     0.2126
     48 H         1.165707   -1.927926   -0.053033 H        1 UNL1     0.2101
     49 H         -1.915159   0.90991   -1.129811 H        1 UNL1     0.2100
     50 H         -2.670979   -3.351506   -1.121596 H        1 UNL1     0.2102
@<TRIPOS>BOND
     1     1     2    1
     2     1     6    1
     3     2     3    1
     4     3     4    1
     5     3    29    1
     6     3    33    1
     7     4     5    1
     8     5     6    1
     9     5     7    1
    10     5    35    1
    11     7     8    1
    12     8     9   ar
    13     8    13   ar
    14     9    10   ar
    15     9    36    1
    16    10    11   ar
    17    10    26    1
    18    11    12   ar
    19    11    14    1
    20    12    13   ar
    21    12    17    1
    22    13    37    1
    23    14    15    1
    24    14    25    2
    25    15    16    1
    26    15    38    1
    27    15    39    1
    28    16    17    1
    29    16    18    1
    30    16    40    1
    31    18    19   ar
    32    18    23   ar
    33    19    20   ar
    34    19    41    1
    35    20    21   ar
    36    20    42    1
    37    21    22   ar
    38    21    24    1
    39    22    23   ar
    40    22    43    1
    41    23    44    1
    42    24    45    1
    43    26    46    1
    44    27    47    1
    45    28    48    1
    46    29    49    1
    47    30    50    1
    48     1    31    1
    49     1    27    1
    50     2    32    1
    51     2    28    1
    52     4    34    1
    53     4    30    1
