@<TRIPOS>MOLECULE
*****
 50 53 0 0 0
SMALL
GASTEIGER

@<TRIPOS>ATOM
     1 C         -0.868944   -1.756016   -0.965478 C.3        1 UNL1     0.1889
     2 C         -0.674978   -0.824486   0.261131 C.3        1 UNL1     0.1342
     3 C         -0.14539   -1.525649   1.521437 C.3        1 UNL1     0.1174
     4 C         -0.670244   -2.955908   1.669774 C.3        1 UNL1     0.1456
     5 C         -0.572492   -3.759292   0.360048 C.3        1 UNL1     0.2326
     6 O         -1.279671   -3.084567   -0.677985 O.3        1 UNL1     -0.3076
     7 O         0.777574   -4.100065   -0.003981 O.3        1 UNL1     -0.4605
     8 C         0.943311   -4.667936   -1.254413 C.ar        1 UNL1     0.1310
     9 C         1.563631   -5.895353   -1.511224 C.ar        1 UNL1     0.0226
     10 C         1.667753   -6.394898   -2.814879 C.ar        1 UNL1     0.1343
     11 C         1.132405   -5.689617   -3.891829 C.ar        1 UNL1     0.1007
     12 C         0.546988   -4.443464   -3.652722 C.ar        1 UNL1     0.1389
     13 C         0.444767   -3.94016   -2.342124 C.ar        1 UNL1     0.0229
     14 C         1.139981   -6.209737   -5.278758 C.2        1 UNL1     0.1740
     15 C         0.327647   -5.428698   -6.269536 C.3        1 UNL1     0.0520
     16 C         0.520438   -3.945008   -5.98766 C.3        1 UNL1     0.1322
     17 O         0.084853   -3.616347   -4.650006 O.3        1 UNL1     -0.4828
     18 C         1.914914   -3.4258   -6.34625 C.ar        1 UNL1     -0.0067
     19 C         2.042909   -2.195504   -7.023156 C.ar        1 UNL1     -0.0516
     20 C         3.300214   -1.714684   -7.407809 C.ar        1 UNL1     -0.0198
     21 C         4.433951   -2.456623   -7.128534 C.ar        1 UNL1     0.1169
     22 C         4.34313   -3.655719   -6.433726 C.ar        1 UNL1     -0.0198
     23 C         3.087611   -4.127831   -6.032679 C.ar        1 UNL1     -0.0516
     24 O         5.637647   -1.974762   -7.552004 O.3        1 UNL1     -0.5068
     25 O         1.699082   -7.25302   -5.606556 O.2        1 UNL1     -0.2917
     26 O         2.285449   -7.597645   -2.997737 O.3        1 UNL1     -0.5058
     27 O         0.22093   -1.729628   -1.873368 O.3        1 UNL1     -0.3648
     28 O         -1.948033   -0.242442   0.597675 O.3        1 UNL1     -0.3841
     29 O         1.280345   -1.450203   1.582426 O.3        1 UNL1     -0.3863
     30 O         -2.052618   -2.912516   2.085526 O.3        1 UNL1     -0.3829
     31 H         -1.707816   -1.347155   -1.539241 H        1 UNL1     0.0937
     32 H         0.0   0.0   0.0 H        1 UNL1     0.0671
     33 H         -0.504942   -0.963051   2.394321 H        1 UNL1     0.0649
     34 H         -0.11508   -3.478266   2.456753 H        1 UNL1     0.0683
     35 H         -1.124979   -4.682727   0.574301 H        1 UNL1     0.1085
     36 H         1.949999   -6.517399   -0.711288 H        1 UNL1     0.0691
     37 H         -0.014497   -2.966935   -2.182736 H        1 UNL1     0.0691
     38 H         -0.720033   -5.721844   -6.143206 H        1 UNL1     0.0385
     39 H         0.639247   -5.701408   -7.283593 H        1 UNL1     0.0385
     40 H         -0.170675   -3.398438   -6.643513 H        1 UNL1     0.0789
     41 H         1.167435   -1.598766   -7.262111 H        1 UNL1     0.0623
     42 H         3.384772   -0.770294   -7.939777 H        1 UNL1     0.0654
     43 H         5.225921   -4.237404   -6.196587 H        1 UNL1     0.0654
     44 H         3.054769   -5.063206   -5.482369 H        1 UNL1     0.0623
     45 H         5.674566   -1.024928   -7.354089 H        1 UNL1     0.2921
     46 H         3.137175   -7.459748   -3.441539 H        1 UNL1     0.2922
     47 H         0.4039   -2.620607   -2.20282 H        1 UNL1     0.2126
     48 H         -2.400851   -0.052883   -0.246573 H        1 UNL1     0.2101
     49 H         1.656286   -1.589265   0.698614 H        1 UNL1     0.2100
     50 H         -2.608822   -3.113058   1.304417 H        1 UNL1     0.2102
@<TRIPOS>BOND
     1     1     2    1
     2     1     6    1
     3     2     3    1
     4     3     4    1
     5     3    29    1
     6     3    33    1
     7     4     5    1
     8     5     6    1
     9     5     7    1
    10     5    35    1
    11     7     8    1
    12     8     9   ar
    13     8    13   ar
    14     9    10   ar
    15     9    36    1
    16    10    11   ar
    17    10    26    1
    18    11    12   ar
    19    11    14    1
    20    12    13   ar
    21    12    17    1
    22    13    37    1
    23    14    15    1
    24    14    25    2
    25    15    16    1
    26    15    38    1
    27    15    39    1
    28    16    17    1
    29    16    18    1
    30    16    40    1
    31    18    19   ar
    32    18    23   ar
    33    19    20   ar
    34    19    41    1
    35    20    21   ar
    36    20    42    1
    37    21    22   ar
    38    21    24    1
    39    22    23   ar
    40    22    43    1
    41    23    44    1
    42    24    45    1
    43    26    46    1
    44    27    47    1
    45    28    48    1
    46    29    49    1
    47    30    50    1
    48     1    31    1
    49     1    27    1
    50     2    32    1
    51     2    28    1
    52     4    34    1
    53     4    30    1
