@<TRIPOS>MOLECULE
*****
 50 53 0 0 0
SMALL
GASTEIGER

@<TRIPOS>ATOM
     1 C         -0.336267   -1.321124   1.706564 C.3        1 UNL1     0.1889
     2 C         -0.480342   -0.965339   0.20237 C.3        1 UNL1     0.1342
     3 C         -1.927934   -0.922038   -0.310531 C.3        1 UNL1     0.1174
     4 C         -2.827247   -1.962237   0.362032 C.3        1 UNL1     0.1456
     5 C         -2.654689   -1.990957   1.89166 C.3        1 UNL1     0.2326
     6 O         -1.289969   -2.238111   2.222299 O.3        1 UNL1     -0.3076
     7 O         -3.195816   -0.831983   2.551417 O.3        1 UNL1     -0.4605
     8 C         -3.699245   -1.038244   3.823244 C.ar        1 UNL1     0.1310
     9 C         -4.537928   -2.092125   4.201722 C.ar        1 UNL1     0.0226
     10 C         -4.982365   -2.224835   5.522618 C.ar        1 UNL1     0.1343
     11 C         -4.57922   -1.319416   6.503195 C.ar        1 UNL1     0.1007
     12 C         -3.775079   -0.239603   6.128839 C.ar        1 UNL1     0.1389
     13 C         -3.330482   -0.104895   4.800073 C.ar        1 UNL1     0.0229
     14 C         -4.950554   -1.459589   7.930296 C.2        1 UNL1     0.1740
     15 C         -4.250409   -0.530177   8.877682 C.3        1 UNL1     0.0520
     16 C         -4.153836   0.841375   8.223864 C.3        1 UNL1     0.1322
     17 O         -3.407861   0.769306   6.988794 O.3        1 UNL1     -0.4828
     18 C         -5.497014   1.566734   8.11228 C.ar        1 UNL1     -0.0067
     19 C         -5.872179   2.144073   6.881774 C.ar        1 UNL1     -0.0516
     20 C         -7.071774   2.855143   6.758021 C.ar        1 UNL1     -0.0198
     21 C         -7.899475   3.001902   7.856748 C.ar        1 UNL1     0.1169
     22 C         -7.573417   2.416414   9.073189 C.ar        1 UNL1     -0.0198
     23 C         -6.382781   1.689623   9.192424 C.ar        1 UNL1     -0.0516
     24 O         -9.041194   3.733171   7.708009 O.3        1 UNL1     -0.5068
     25 O         -5.716718   -2.323972   8.347811 O.2        1 UNL1     -0.2917
     26 O         -5.799567   -3.274399   5.826233 O.3        1 UNL1     -0.5058
     27 O         -0.19491   -0.185491   2.5451 O.3        1 UNL1     -0.3648
     28 O         0.218363   -1.959049   -0.570326 O.3        1 UNL1     -0.3841
     29 O         -2.456108   0.403162   -0.226799 O.3        1 UNL1     -0.3863
     30 O         -2.514895   -3.270096   -0.164876 O.3        1 UNL1     -0.3829
     31 H         0.614821   -1.854372   1.812188 H        1 UNL1     0.0937
     32 H         0.0   0.0   0.0 H        1 UNL1     0.0671
     33 H         -1.911112   -1.16221   -1.382797 H        1 UNL1     0.0649
     34 H         -3.876831   -1.761519   0.120191 H        1 UNL1     0.0683
     35 H         -3.224028   -2.87482   2.205535 H        1 UNL1     0.1085
     36 H         -4.841363   -2.860096   3.498679 H        1 UNL1     0.0691
     37 H         -2.706091   0.745304   4.534008 H        1 UNL1     0.0691
     38 H         -3.255982   -0.944933   9.0742 H        1 UNL1     0.0385
     39 H         -4.801501   -0.499965   9.823813 H        1 UNL1     0.0385
     40 H         -3.537594   1.47033   8.880508 H        1 UNL1     0.0789
     41 H         -5.235411   2.050821   6.006857 H        1 UNL1     0.0623
     42 H         -7.344241   3.305821   5.806884 H        1 UNL1     0.0654
     43 H         -8.221623   2.512371   9.936051 H        1 UNL1     0.0654
     44 H         -6.164727   1.236722   10.154805 H        1 UNL1     0.0623
     45 H         -8.794433   4.643998   7.479491 H        1 UNL1     0.2921
     46 H         -5.402457   -3.797567   6.540383 H        1 UNL1     0.2922
     47 H         0.549793   0.357363   2.250846 H        1 UNL1     0.2126
     48 H         1.159594   -1.89961   -0.316782 H        1 UNL1     0.2101
     49 H         -2.019945   0.974089   -0.879177 H        1 UNL1     0.2100
     50 H         -2.76701   -3.281888   -1.111455 H        1 UNL1     0.2102
@<TRIPOS>BOND
     1     1     2    1
     2     1     6    1
     3     2     3    1
     4     3     4    1
     5     3    29    1
     6     3    33    1
     7     4     5    1
     8     5     6    1
     9     5     7    1
    10     5    35    1
    11     7     8    1
    12     8     9   ar
    13     8    13   ar
    14     9    10   ar
    15     9    36    1
    16    10    11   ar
    17    10    26    1
    18    11    12   ar
    19    11    14    1
    20    12    13   ar
    21    12    17    1
    22    13    37    1
    23    14    15    1
    24    14    25    2
    25    15    16    1
    26    15    38    1
    27    15    39    1
    28    16    17    1
    29    16    18    1
    30    16    40    1
    31    18    19   ar
    32    18    23   ar
    33    19    20   ar
    34    19    41    1
    35    20    21   ar
    36    20    42    1
    37    21    22   ar
    38    21    24    1
    39    22    23   ar
    40    22    43    1
    41    23    44    1
    42    24    45    1
    43    26    46    1
    44    27    47    1
    45    28    48    1
    46    29    49    1
    47    30    50    1
    48     1    31    1
    49     1    27    1
    50     2    32    1
    51     2    28    1
    52     4    34    1
    53     4    30    1
