@<TRIPOS>MOLECULE
*****
 50 53 0 0 0
SMALL
GASTEIGER

@<TRIPOS>ATOM
     1 C         -0.248503   -1.392501   1.664329 C.3        1 UNL1     0.1889
     2 C         -0.442182   -0.988088   0.178099 C.3        1 UNL1     0.1342
     3 C         -1.902808   -0.976669   -0.298246 C.3        1 UNL1     0.1174
     4 C         -2.749274   -2.070976   0.356816 C.3        1 UNL1     0.1456
     5 C         -2.537566   -2.148659   1.87981 C.3        1 UNL1     0.2326
     6 O         -1.157408   -2.36   2.168543 O.3        1 UNL1     -0.3076
     7 O         -3.100895   -1.033642   2.594455 O.3        1 UNL1     -0.4605
     8 C         -3.557712   -1.301083   3.87247 C.ar        1 UNL1     0.1310
     9 C         -4.345128   -2.398009   4.238571 C.ar        1 UNL1     0.0226
     10 C         -4.744251   -2.591392   5.566429 C.ar        1 UNL1     0.1343
     11 C         -4.345334   -1.704515   6.565507 C.ar        1 UNL1     0.1007
     12 C         -3.593253   -0.583136   6.205415 C.ar        1 UNL1     0.1389
     13 C         -3.194283   -0.38749   4.869759 C.ar        1 UNL1     0.0229
     14 C         -4.667953   -1.906118   7.997089 C.2        1 UNL1     0.1740
     15 C         -3.974262   -0.982919   8.955236 C.3        1 UNL1     0.0520
     16 C         -3.94815   0.412325   8.346491 C.3        1 UNL1     0.1322
     17 O         -3.237686   0.409756   7.088595 O.3        1 UNL1     -0.4828
     18 C         -5.319929   1.089582   8.298871 C.ar        1 UNL1     -0.0067
     19 C         -5.754325   1.690519   7.099542 C.ar        1 UNL1     -0.0516
     20 C         -6.982543   2.359306   7.034987 C.ar        1 UNL1     -0.0198
     21 C         -7.780363   2.440296   8.162264 C.ar        1 UNL1     0.1169
     22 C         -7.395157   1.829805   9.348752 C.ar        1 UNL1     -0.0198
     23 C         -6.17545   1.145119   9.408553 C.ar        1 UNL1     -0.0516
     24 O         -8.952296   3.132224   8.071662 O.3        1 UNL1     -0.5068
     25 O         -5.388743   -2.81234   8.40661 O.2        1 UNL1     -0.2917
     26 O         -5.512632   -3.680697   5.85727 O.3        1 UNL1     -0.5058
     27 O         -0.124683   -0.283525   2.540473 O.3        1 UNL1     -0.3648
     28 O         0.270163   -1.928514   -0.647048 O.3        1 UNL1     -0.3841
     29 O         -2.473255   0.325523   -0.153266 O.3        1 UNL1     -0.3863
     30 O         -2.406151   -3.347411   -0.225137 O.3        1 UNL1     -0.3829
     31 H         0.722432   -1.895853   1.727588 H        1 UNL1     0.0937
     32 H         0.0   0.0   0.0 H        1 UNL1     0.0671
     33 H         -1.904745   -1.177408   -1.378718 H        1 UNL1     0.0649
     34 H         -3.810779   -1.898262   0.147584 H        1 UNL1     0.0683
     35 H         -3.068629   -3.062471   2.174424 H        1 UNL1     0.1085
     36 H         -4.641132   -3.153079   3.518592 H        1 UNL1     0.0691
     37 H         -2.610003   0.494149   4.615151 H        1 UNL1     0.0691
     38 H         -2.959729   -1.366013   9.108492 H        1 UNL1     0.0385
     39 H         -4.497252   -1.005145   9.917403 H        1 UNL1     0.0385
     40 H         -3.335969   1.041955   9.006279 H        1 UNL1     0.0789
     41 H         -5.142193   1.648768   6.203327 H        1 UNL1     0.0623
     42 H         -7.300976   2.828881   6.107565 H        1 UNL1     0.0654
     43 H         -8.019189   1.874204   10.233356 H        1 UNL1     0.0654
     44 H         -5.910935   0.670918   10.348771 H        1 UNL1     0.0623
     45 H         -8.748228   4.051372   7.83451 H        1 UNL1     0.2921
     46 H         -5.074432   -4.212675   6.540199 H        1 UNL1     0.2922
     47 H         0.599975   0.289944   2.254353 H        1 UNL1     0.2126
     48 H         1.212374   -1.860253   -0.399434 H        1 UNL1     0.2101
     49 H         -2.068083   0.936019   -0.789602 H        1 UNL1     0.2100
     50 H         -2.676225   -3.331868   -1.166694 H        1 UNL1     0.2102
@<TRIPOS>BOND
     1     1     2    1
     2     1     6    1
     3     2     3    1
     4     3     4    1
     5     3    29    1
     6     3    33    1
     7     4     5    1
     8     5     6    1
     9     5     7    1
    10     5    35    1
    11     7     8    1
    12     8     9   ar
    13     8    13   ar
    14     9    10   ar
    15     9    36    1
    16    10    11   ar
    17    10    26    1
    18    11    12   ar
    19    11    14    1
    20    12    13   ar
    21    12    17    1
    22    13    37    1
    23    14    15    1
    24    14    25    2
    25    15    16    1
    26    15    38    1
    27    15    39    1
    28    16    17    1
    29    16    18    1
    30    16    40    1
    31    18    19   ar
    32    18    23   ar
    33    19    20   ar
    34    19    41    1
    35    20    21   ar
    36    20    42    1
    37    21    22   ar
    38    21    24    1
    39    22    23   ar
    40    22    43    1
    41    23    44    1
    42    24    45    1
    43    26    46    1
    44    27    47    1
    45    28    48    1
    46    29    49    1
    47    30    50    1
    48     1    31    1
    49     1    27    1
    50     2    32    1
    51     2    28    1
    52     4    34    1
    53     4    30    1
