@<TRIPOS>MOLECULE
*****
 50 53 0 0 0
SMALL
GASTEIGER

@<TRIPOS>ATOM
     1 C         -1.215505   -0.324293   1.785549 C.3        1 UNL1     0.1889
     2 C         0.114564   -0.448366   0.994688 C.3        1 UNL1     0.1342
     3 C         0.63682   -1.884919   0.839674 C.3        1 UNL1     0.1174
     4 C         0.339609   -2.759429   2.060336 C.3        1 UNL1     0.1456
     5 C         -1.11449   -2.61965   2.546567 C.3        1 UNL1     0.2326
     6 O         -1.398808   -1.254279   2.842867 O.3        1 UNL1     -0.3076
     7 O         -2.075934   -3.218   1.658354 O.3        1 UNL1     -0.4605
     8 C         -2.90969   -4.168774   2.219076 C.ar        1 UNL1     0.1310
     9 C         -2.565848   -5.501568   2.469546 C.ar        1 UNL1     0.0226
     10 C         -3.477554   -6.385808   3.058456 C.ar        1 UNL1     0.1343
     11 C         -4.748439   -5.952053   3.433354 C.ar        1 UNL1     0.1007
     12 C         -5.117508   -4.634181   3.15089 C.ar        1 UNL1     0.1389
     13 C         -4.201522   -3.745984   2.556326 C.ar        1 UNL1     0.0229
     14 C         -5.72154   -6.821032   4.134854 C.2        1 UNL1     0.1740
     15 C         -6.946637   -6.13193   4.660044 C.3        1 UNL1     0.0520
     16 C         -7.407727   -5.114293   3.625748 C.3        1 UNL1     0.1322
     17 O         -6.377776   -4.131922   3.378325 O.3        1 UNL1     -0.4828
     18 C         -7.999927   -5.744382   2.36281 C.ar        1 UNL1     -0.0067
     19 C         -7.907713   -7.13895   2.176019 C.ar        1 UNL1     -0.0516
     20 C         -8.396592   -7.741479   1.010722 C.ar        1 UNL1     -0.0198
     21 C         -8.971935   -6.961283   0.023756 C.ar        1 UNL1     0.1169
     22 C         -9.107284   -5.589513   0.193357 C.ar        1 UNL1     -0.0198
     23 C         -8.635136   -4.989046   1.366631 C.ar        1 UNL1     -0.0516
     24 O         -9.402546   -7.578518   -1.113784 O.3        1 UNL1     -0.5068
     25 O         -5.526303   -8.013176   4.356575 O.2        1 UNL1     -0.2917
     26 O         -3.080322   -7.67303   3.274907 O.3        1 UNL1     -0.5058
     27 O         -2.362238   -0.243866   0.954092 O.3        1 UNL1     -0.3648
     28 O         1.12855   0.303741   1.686696 O.3        1 UNL1     -0.3841
     29 O         0.173459   -2.463838   -0.381916 O.3        1 UNL1     -0.3863
     30 O         1.22689   -2.387016   3.137245 O.3        1 UNL1     -0.3829
     31 H         -1.185615   0.643454   2.298045 H        1 UNL1     0.0937
     32 H         0.0   0.0   -0.0 H        1 UNL1     0.0671
     33 H         1.73039   -1.835546   0.742785 H        1 UNL1     0.0649
     34 H         0.543199   -3.810184   1.826102 H        1 UNL1     0.0683
     35 H         -1.127912   -3.162423   3.500033 H        1 UNL1     0.1085
     36 H         -1.574974   -5.885262   2.252596 H        1 UNL1     0.0691
     37 H         -4.513774   -2.725362   2.345797 H        1 UNL1     0.0691
     38 H         -6.673632   -5.642652   5.601108 H        1 UNL1     0.0385
     39 H         -7.715836   -6.881572   4.874865 H        1 UNL1     0.0385
     40 H         -8.229421   -4.542638   4.078018 H        1 UNL1     0.0789
     41 H         -7.452224   -7.772145   2.931826 H        1 UNL1     0.0623
     42 H         -8.308882   -8.816379   0.873212 H        1 UNL1     0.0654
     43 H         -9.56977   -4.971058   -0.566598 H        1 UNL1     0.0654
     44 H         -8.766906   -3.916322   1.470286 H        1 UNL1     0.0623
     45 H         -9.564209   -8.514494   -0.91246 H        1 UNL1     0.2921
     46 H         -3.276443   -7.922274   4.191873 H        1 UNL1     0.2922
     47 H         -3.135234   -0.599319   1.414516 H        1 UNL1     0.2126
     48 H         1.383503   1.038661   1.096253 H        1 UNL1     0.2101
     49 H         0.125246   -1.783371   -1.072158 H        1 UNL1     0.2100
     50 H         1.364522   -3.176216   3.701101 H        1 UNL1     0.2102
@<TRIPOS>BOND
     1     1     2    1
     2     1     6    1
     3     2     3    1
     4     3     4    1
     5     3    29    1
     6     3    33    1
     7     4     5    1
     8     5     6    1
     9     5     7    1
    10     5    35    1
    11     7     8    1
    12     8     9   ar
    13     8    13   ar
    14     9    10   ar
    15     9    36    1
    16    10    11   ar
    17    10    26    1
    18    11    12   ar
    19    11    14    1
    20    12    13   ar
    21    12    17    1
    22    13    37    1
    23    14    15    1
    24    14    25    2
    25    15    16    1
    26    15    38    1
    27    15    39    1
    28    16    17    1
    29    16    18    1
    30    16    40    1
    31    18    19   ar
    32    18    23   ar
    33    19    20   ar
    34    19    41    1
    35    20    21   ar
    36    20    42    1
    37    21    22   ar
    38    21    24    1
    39    22    23   ar
    40    22    43    1
    41    23    44    1
    42    24    45    1
    43    26    46    1
    44    27    47    1
    45    28    48    1
    46    29    49    1
    47    30    50    1
    48     1    31    1
    49     1    27    1
    50     2    32    1
    51     2    28    1
    52     4    34    1
    53     4    30    1
