@<TRIPOS>MOLECULE
*****
 50 53 0 0 0
SMALL
GASTEIGER

@<TRIPOS>ATOM
     1 C         -0.404801   -1.406588   1.62125 C.3        1 UNL1     0.1889
     2 C         -0.433076   -1.000415   0.123196 C.3        1 UNL1     0.1342
     3 C         -1.827234   -1.025844   -0.521894 C.3        1 UNL1     0.1174
     4 C         -2.714898   -2.145543   0.027145 C.3        1 UNL1     0.1456
     5 C         -2.681929   -2.224799   1.564348 C.3        1 UNL1     0.2326
     6 O         -1.340133   -2.400479   2.013335 O.3        1 UNL1     -0.3076
     7 O         -3.355546   -1.128695   2.209418 O.3        1 UNL1     -0.4605
     8 C         -3.962293   -1.417226   3.418606 C.ar        1 UNL1     0.1310
     9 C         -4.763981   -2.534335   3.676802 C.ar        1 UNL1     0.0226
     10 C         -5.321427   -2.747995   4.943098 C.ar        1 UNL1     0.1343
     11 C         -5.070932   -1.8613   5.989456 C.ar        1 UNL1     0.1007
     12 C         -4.305603   -0.720574   5.732944 C.ar        1 UNL1     0.1389
     13 C         -3.747385   -0.504586   4.458906 C.ar        1 UNL1     0.0229
     14 C         -5.565273   -2.082401   7.368186 C.2        1 UNL1     0.1740
     15 C         -5.018109   -1.15256   8.411046 C.3        1 UNL1     0.0520
     16 C         -4.948049   0.248168   7.818586 C.3        1 UNL1     0.1322
     17 O         -4.086046   0.272163   6.659515 O.3        1 UNL1     -0.4828
     18 C         -6.318256   0.895509   7.603628 C.ar        1 UNL1     -0.0067
     19 C         -6.606585   1.512725   6.369073 C.ar        1 UNL1     -0.0516
     20 C         -7.832083   2.155176   6.15606 C.ar        1 UNL1     -0.0198
     21 C         -8.772559   2.19362   7.169891 C.ar        1 UNL1     0.1169
     22 C         -8.531058   1.566038   8.385068 C.ar        1 UNL1     -0.0198
     23 C         -7.312975   0.907609   8.591951 C.ar        1 UNL1     -0.0516
     24 O         -9.93944   2.861029   6.938902 O.3        1 UNL1     -0.5068
     25 O         -6.310667   -3.007773   7.678922 O.2        1 UNL1     -0.2917
     26 O         -6.095001   -3.856413   5.129054 O.3        1 UNL1     -0.5058
     27 O         -0.415151   -0.298889   2.507638 O.3        1 UNL1     -0.3648
     28 O         0.396733   -1.917475   -0.613773 O.3        1 UNL1     -0.3841
     29 O         -2.445934   0.259896   -0.443063 O.3        1 UNL1     -0.3863
     30 O         -2.271112   -3.409538   -0.512356 O.3        1 UNL1     -0.3829
     31 H         0.565243   -1.884052   1.797657 H        1 UNL1     0.0937
     32 H         0.0   0.0   0.0 H        1 UNL1     0.0671
     33 H         -1.696504   -1.221402   -1.595387 H        1 UNL1     0.0649
     34 H         -3.748686   -2.000323   -0.305415 H        1 UNL1     0.0683
     35 H         -3.218968   -3.153903   1.792895 H        1 UNL1     0.1085
     36 H         -4.950301   -3.28943   2.921 H        1 UNL1     0.0691
     37 H         -3.156197   0.391861   4.28463 H        1 UNL1     0.0691
     38 H         -4.02219   -1.51459   8.687824 H        1 UNL1     0.0385
     39 H         -5.656624   -1.19465   9.300038 H        1 UNL1     0.0385
     40 H         -4.437719   0.885329   8.553506 H        1 UNL1     0.0789
     41 H         -5.881405   1.504293   5.56056 H        1 UNL1     0.0623
     42 H         -8.037842   2.637727   5.203789 H        1 UNL1     0.0654
     43 H         -9.266576   1.577104   9.180556 H        1 UNL1     0.0654
     44 H         -7.162211   0.41895   9.549723 H        1 UNL1     0.0623
     45 H         -9.729759   3.791422   6.756918 H        1 UNL1     0.2921
     46 H         -5.734344   -4.38385   5.859224 H        1 UNL1     0.2922
     47 H         0.309916   0.305707   2.296447 H        1 UNL1     0.2126
     48 H         1.308649   -1.794212   -0.286745 H        1 UNL1     0.2101
     49 H         -1.98981   0.882261   -1.031626 H        1 UNL1     0.2100
     50 H         -2.434001   -3.398927   -1.47831 H        1 UNL1     0.2102
@<TRIPOS>BOND
     1     1     2    1
     2     1     6    1
     3     2     3    1
     4     3     4    1
     5     3    29    1
     6     3    33    1
     7     4     5    1
     8     5     6    1
     9     5     7    1
    10     5    35    1
    11     7     8    1
    12     8     9   ar
    13     8    13   ar
    14     9    10   ar
    15     9    36    1
    16    10    11   ar
    17    10    26    1
    18    11    12   ar
    19    11    14    1
    20    12    13   ar
    21    12    17    1
    22    13    37    1
    23    14    15    1
    24    14    25    2
    25    15    16    1
    26    15    38    1
    27    15    39    1
    28    16    17    1
    29    16    18    1
    30    16    40    1
    31    18    19   ar
    32    18    23   ar
    33    19    20   ar
    34    19    41    1
    35    20    21   ar
    36    20    42    1
    37    21    22   ar
    38    21    24    1
    39    22    23   ar
    40    22    43    1
    41    23    44    1
    42    24    45    1
    43    26    46    1
    44    27    47    1
    45    28    48    1
    46    29    49    1
    47    30    50    1
    48     1    31    1
    49     1    27    1
    50     2    32    1
    51     2    28    1
    52     4    34    1
    53     4    30    1
