@<TRIPOS>MOLECULE
*****
 50 53 0 0 0
SMALL
GASTEIGER

@<TRIPOS>ATOM
     1 C         -0.323151   -1.318458   1.711154 C.3        1 UNL1     0.1889
     2 C         -0.46598   -0.971866   0.204696 C.3        1 UNL1     0.1342
     3 C         -1.911729   -0.953762   -0.314867 C.3        1 UNL1     0.1174
     4 C         -2.79758   -2.004944   0.358485 C.3        1 UNL1     0.1456
     5 C         -2.631543   -2.023949   1.888987 C.3        1 UNL1     0.2326
     6 O         -1.264613   -2.248019   2.226868 O.3        1 UNL1     -0.3076
     7 O         -3.193865   -0.870659   2.540935 O.3        1 UNL1     -0.4605
     8 C         -3.692495   -1.077272   3.814593 C.ar        1 UNL1     0.1310
     9 C         -4.511023   -2.143969   4.201207 C.ar        1 UNL1     0.0226
     10 C         -4.952019   -2.275591   5.523365 C.ar        1 UNL1     0.1343
     11 C         -4.565268   -1.355828   6.497172 C.ar        1 UNL1     0.1007
     12 C         -3.781759   -0.263821   6.114523 C.ar        1 UNL1     0.1389
     13 C         -3.340647   -0.130255   4.784481 C.ar        1 UNL1     0.0229
     14 C         -4.932963   -1.492785   7.925526 C.2        1 UNL1     0.1740
     15 C         -4.249737   -0.543703   8.865736 C.3        1 UNL1     0.0520
     16 C         -4.179326   0.824734   8.202126 C.3        1 UNL1     0.1322
     17 O         -3.43295   0.75788   6.967005 O.3        1 UNL1     -0.4828
     18 C         -5.535939   1.523982   8.086467 C.ar        1 UNL1     -0.0067
     19 C         -5.923878   2.082975   6.85146 C.ar        1 UNL1     -0.0516
     20 C         -7.136689   2.77049   6.723492 C.ar        1 UNL1     -0.0198
     21 C         -7.965088   2.911903   7.822394 C.ar        1 UNL1     0.1169
     22 C         -7.626121   2.343722   9.043504 C.ar        1 UNL1     -0.0198
     23 C         -6.421983   1.640281   9.167113 C.ar        1 UNL1     -0.0516
     24 O         -9.120451   3.620459   7.669147 O.3        1 UNL1     -0.5068
     25 O         -5.682511   -2.368386   8.349773 O.2        1 UNL1     -0.2917
     26 O         -5.7492   -3.338101   5.835069 O.3        1 UNL1     -0.5058
     27 O         -0.203524   -0.176917   2.545037 O.3        1 UNL1     -0.3648
     28 O         0.251806   -1.957943   -0.56025 O.3        1 UNL1     -0.3841
     29 O         -2.461102   0.363304   -0.239646 O.3        1 UNL1     -0.3863
     30 O         -2.46226   -3.310103   -0.160947 O.3        1 UNL1     -0.3829
     31 H         0.635735   -1.836139   1.823502 H        1 UNL1     0.0937
     32 H         0.0   0.0   0.0 H        1 UNL1     0.0671
     33 H         -1.886251   -1.198534   -1.385922 H        1 UNL1     0.0649
     34 H         -3.849088   -1.821925   0.111026 H        1 UNL1     0.0683
     35 H         -3.188299   -2.915246   2.20441 H        1 UNL1     0.1085
     36 H         -4.800473   -2.92247   3.503873 H        1 UNL1     0.0691
     37 H         -2.73248   0.729583   4.511894 H        1 UNL1     0.0691
     38 H         -3.24758   -0.938342   9.0644 H        1 UNL1     0.0385
     39 H         -4.800671   -0.5171   9.812067 H        1 UNL1     0.0385
     40 H         -3.574548   1.469781   8.8538 H        1 UNL1     0.0789
     41 H         -5.286988   1.99356   5.97623 H        1 UNL1     0.0623
     42 H         -7.419114   3.207312   5.768801 H        1 UNL1     0.0654
     43 H         -8.274517   2.435519   9.906676 H        1 UNL1     0.0654
     44 H         -6.193901   1.20033   10.13317 H        1 UNL1     0.0623
     45 H         -8.892053   4.525308   7.401192 H        1 UNL1     0.2921
     46 H         -5.340694   -3.850019   6.550943 H        1 UNL1     0.2922
     47 H         0.53995   0.37125   2.257603 H        1 UNL1     0.2126
     48 H         1.187593   -1.896515   -0.287739 H        1 UNL1     0.2101
     49 H         -2.025119   0.940193   -0.88688 H        1 UNL1     0.2100
     50 H         -2.704638   -3.328305   -1.109965 H        1 UNL1     0.2102
@<TRIPOS>BOND
     1     1     2    1
     2     1     6    1
     3     2     3    1
     4     3     4    1
     5     3    29    1
     6     3    33    1
     7     4     5    1
     8     5     6    1
     9     5     7    1
    10     5    35    1
    11     7     8    1
    12     8     9   ar
    13     8    13   ar
    14     9    10   ar
    15     9    36    1
    16    10    11   ar
    17    10    26    1
    18    11    12   ar
    19    11    14    1
    20    12    13   ar
    21    12    17    1
    22    13    37    1
    23    14    15    1
    24    14    25    2
    25    15    16    1
    26    15    38    1
    27    15    39    1
    28    16    17    1
    29    16    18    1
    30    16    40    1
    31    18    19   ar
    32    18    23   ar
    33    19    20   ar
    34    19    41    1
    35    20    21   ar
    36    20    42    1
    37    21    22   ar
    38    21    24    1
    39    22    23   ar
    40    22    43    1
    41    23    44    1
    42    24    45    1
    43    26    46    1
    44    27    47    1
    45    28    48    1
    46    29    49    1
    47    30    50    1
    48     1    31    1
    49     1    27    1
    50     2    32    1
    51     2    28    1
    52     4    34    1
    53     4    30    1
