@<TRIPOS>MOLECULE
*****
 50 53 0 0 0
SMALL
GASTEIGER

@<TRIPOS>ATOM
     1 C         -0.210972   -1.183805   1.823431 C.3        1 UNL1     0.1889
     2 C         -0.520838   -0.908341   0.327422 C.3        1 UNL1     0.1342
     3 C         -2.015185   -0.776224   -0.004145 C.3        1 UNL1     0.1174
     4 C         -2.895288   -1.696088   0.845788 C.3        1 UNL1     0.1456
     5 C         -2.529603   -1.647034   2.340522 C.3        1 UNL1     0.2326
     6 O         -1.155892   -1.986024   2.516226 O.3        1 UNL1     -0.3076
     7 O         -2.893276   -0.409692   2.979308 O.3        1 UNL1     -0.4605
     8 C         -3.234765   -0.495562   4.317045 C.ar        1 UNL1     0.1310
     9 C         -4.087963   -1.45329   4.875713 C.ar        1 UNL1     0.0226
     10 C         -4.359316   -1.46767   6.249053 C.ar        1 UNL1     0.1343
     11 C         -3.764674   -0.538337   7.101451 C.ar        1 UNL1     0.1007
     12 C         -2.943215   0.448214   6.549449 C.ar        1 UNL1     0.1389
     13 C         -2.672619   0.46408   5.168161 C.ar        1 UNL1     0.0229
     14 C         -3.950044   -0.559404   8.570923 C.2        1 UNL1     0.1740
     15 C         -3.064602   0.367933   9.3504 C.3        1 UNL1     0.0520
     16 C         -2.95923   1.684075   8.592361 C.3        1 UNL1     0.1322
     17 O         -2.392908   1.475893   7.279726 O.3        1 UNL1     -0.4828
     18 C         -4.250103   2.506422   8.603172 C.ar        1 UNL1     -0.0067
     19 C         -4.746516   3.032086   7.392608 C.ar        1 UNL1     -0.0516
     20 C         -5.898163   3.827898   7.373748 C.ar        1 UNL1     -0.0198
     21 C         -6.55679   4.110754   8.556976 C.ar        1 UNL1     0.1169
     22 C         -6.111392   3.580031   9.760634 C.ar        1 UNL1     -0.0198
     23 C         -4.970328   2.769012   9.777359 C.ar        1 UNL1     -0.0516
     24 O         -7.653192   4.920406   8.504377 O.3        1 UNL1     -0.5068
     25 O         -4.712823   -1.331999   9.145162 O.2        1 UNL1     -0.2917
     26 O         -5.201028   -2.427473   6.730597 O.3        1 UNL1     -0.5058
     27 O         0.121539   -0.01545   2.556349 O.3        1 UNL1     -0.3648
     28 O         -0.003589   -2.00112   -0.454239 O.3        1 UNL1     -0.3841
     29 O         -2.427919   0.590787   0.051216 O.3        1 UNL1     -0.3863
     30 O         -2.75181   -3.054608   0.377251 O.3        1 UNL1     -0.3829
     31 H         0.703391   -1.78666   1.847651 H        1 UNL1     0.0937
     32 H         0.0   0.0   0.0 H        1 UNL1     0.0671
     33 H         -2.15468   -1.080958   -1.050758 H        1 UNL1     0.0649
     34 H         -3.94939   -1.424048   0.722234 H        1 UNL1     0.0683
     35 H         -3.118001   -2.460257   2.78362 H        1 UNL1     0.1085
     36 H         -4.536992   -2.236641   4.275001 H        1 UNL1     0.0691
     37 H         -2.030638   1.243331   4.763041 H        1 UNL1     0.0691
     38 H         -2.084892   -0.112185   9.44623 H        1 UNL1     0.0385
     39 H         -3.480087   0.500911   10.355123 H        1 UNL1     0.0385
     40 H         -2.217163   2.301174   9.116809 H        1 UNL1     0.0789
     41 H         -4.242438   2.83213   6.451559 H        1 UNL1     0.0623
     42 H         -6.264242   4.237201   6.435415 H        1 UNL1     0.0654
     43 H         -6.628214   3.782826   10.691053 H        1 UNL1     0.0654
     44 H         -4.656656   2.362591   10.73406 H        1 UNL1     0.0623
     45 H         -7.381415   5.781991   8.148675 H        1 UNL1     0.2921
     46 H         -4.748996   -2.937168   7.421458 H        1 UNL1     0.2922
     47 H         0.866817   0.43995   2.140378 H        1 UNL1     0.2126
     48 H         0.961806   -2.017473   -0.307686 H        1 UNL1     0.2101
     49 H         -2.031297   1.085281   -0.683604 H        1 UNL1     0.2100
     50 H         -3.118885   -3.101052   -0.529839 H        1 UNL1     0.2102
@<TRIPOS>BOND
     1     1     2    1
     2     1     6    1
     3     2     3    1
     4     3     4    1
     5     3    29    1
     6     3    33    1
     7     4     5    1
     8     5     6    1
     9     5     7    1
    10     5    35    1
    11     7     8    1
    12     8     9   ar
    13     8    13   ar
    14     9    10   ar
    15     9    36    1
    16    10    11   ar
    17    10    26    1
    18    11    12   ar
    19    11    14    1
    20    12    13   ar
    21    12    17    1
    22    13    37    1
    23    14    15    1
    24    14    25    2
    25    15    16    1
    26    15    38    1
    27    15    39    1
    28    16    17    1
    29    16    18    1
    30    16    40    1
    31    18    19   ar
    32    18    23   ar
    33    19    20   ar
    34    19    41    1
    35    20    21   ar
    36    20    42    1
    37    21    22   ar
    38    21    24    1
    39    22    23   ar
    40    22    43    1
    41    23    44    1
    42    24    45    1
    43    26    46    1
    44    27    47    1
    45    28    48    1
    46    29    49    1
    47    30    50    1
    48     1    31    1
    49     1    27    1
    50     2    32    1
    51     2    28    1
    52     4    34    1
    53     4    30    1
