@<TRIPOS>MOLECULE
*****
 50 53 0 0 0
SMALL
GASTEIGER

@<TRIPOS>ATOM
     1 C         -1.886786   0.359808   -1.039895 C.3        1 UNL1     0.1889
     2 C         -0.337436   0.413194   -0.958629 C.3        1 UNL1     0.1342
     3 C         0.266353   1.814168   -1.140773 C.3        1 UNL1     0.1174
     4 C         -0.519431   2.674633   -2.133377 C.3        1 UNL1     0.1456
     5 C         -2.038243   2.622079   -1.886777 C.3        1 UNL1     0.2326
     6 O         -2.493426   1.272085   -1.943296 O.3        1 UNL1     -0.3076
     7 O         -2.44872   3.308001   -0.689973 O.3        1 UNL1     -0.4605
     8 C         -2.932326   2.509475   0.330816 C.ar        1 UNL1     0.1310
     9 C         -2.755591   2.746678   1.698222 C.ar        1 UNL1     0.0226
     10 C         -3.300388   1.885823   2.658444 C.ar        1 UNL1     0.1343
     11 C         -4.056066   0.778868   2.274461 C.ar        1 UNL1     0.1007
     12 C         -4.204857   0.508769   0.91149 C.ar        1 UNL1     0.1389
     13 C         -3.654737   1.373037   -0.053828 C.ar        1 UNL1     0.0229
     14 C         -4.724776   -0.116252   3.246953 C.2        1 UNL1     0.1740
     15 C         -5.674806   -1.118543   2.660094 C.3        1 UNL1     0.0520
     16 C         -5.063236   -1.669619   1.379369 C.3        1 UNL1     0.1322
     17 O         -4.836516   -0.611177   0.42262 O.3        1 UNL1     -0.4828
     18 C         -3.856205   -2.580735   1.615307 C.ar        1 UNL1     -0.0067
     19 C         -2.862402   -2.189206   2.535781 C.ar        1 UNL1     -0.0516
     20 C         -1.722616   -2.976006   2.740227 C.ar        1 UNL1     -0.0198
     21 C         -1.56174   -4.150166   2.026578 C.ar        1 UNL1     0.1169
     22 C         -2.538899   -4.579082   1.137742 C.ar        1 UNL1     -0.0198
     23 C         -3.687524   -3.801765   0.946705 C.ar        1 UNL1     -0.0516
     24 O         -0.4209   -4.871115   2.224358 O.3        1 UNL1     -0.5068
     25 O         -4.590588   -0.013657   4.463487 O.2        1 UNL1     -0.2917
     26 O         -3.090641   2.172841   3.975719 O.3        1 UNL1     -0.5058
     27 O         -2.520512   0.379986   0.229267 O.3        1 UNL1     -0.3648
     28 O         0.202924   -0.424519   -1.997356 O.3        1 UNL1     -0.3841
     29 O         0.450106   2.455343   0.123055 O.3        1 UNL1     -0.3863
     30 O         -0.250988   2.214165   -3.475613 O.3        1 UNL1     -0.3829
     31 H         -2.144689   -0.620834   -1.45451 H        1 UNL1     0.0937
     32 H         0.0   0.0   0.0 H        1 UNL1     0.0671
     33 H         1.276614   1.692555   -1.555867 H        1 UNL1     0.0649
     34 H         -0.179723   3.714759   -2.077373 H        1 UNL1     0.0683
     35 H         -2.465268   3.139275   -2.75513 H        1 UNL1     0.1085
     36 H         -2.2259   3.62047   2.061587 H        1 UNL1     0.0691
     37 H         -3.783835   1.13992   -1.108571 H        1 UNL1     0.0691
     38 H         -6.618207   -0.600845   2.456354 H        1 UNL1     0.0385
     39 H         -5.868383   -1.9045   3.398049 H        1 UNL1     0.0385
     40 H         -5.821769   -2.308593   0.907289 H        1 UNL1     0.0789
     41 H         -2.960876   -1.267332   3.101557 H        1 UNL1     0.0623
     42 H         -0.957685   -2.657339   3.444034 H        1 UNL1     0.0654
     43 H         -2.430119   -5.50447   0.584809 H        1 UNL1     0.0654
     44 H         -4.435456   -4.172509   0.252449 H        1 UNL1     0.0623
     45 H         0.340537   -4.291327   2.060721 H        1 UNL1     0.2921
     46 H         -2.172039   2.458416   4.102318 H        1 UNL1     0.2922
     47 H         -2.117641   -0.276002   0.81513 H        1 UNL1     0.2126
     48 H         -0.48023   -1.09159   -2.202416 H        1 UNL1     0.2101
     49 H         -0.353937   2.365037   0.658923 H        1 UNL1     0.2100
     50 H         -0.053262   2.997776   -4.029302 H        1 UNL1     0.2102
@<TRIPOS>BOND
     1     1     2    1
     2     1     6    1
     3     2     3    1
     4     3     4    1
     5     3    29    1
     6     3    33    1
     7     4     5    1
     8     5     6    1
     9     5     7    1
    10     5    35    1
    11     7     8    1
    12     8     9   ar
    13     8    13   ar
    14     9    10   ar
    15     9    36    1
    16    10    11   ar
    17    10    26    1
    18    11    12   ar
    19    11    14    1
    20    12    13   ar
    21    12    17    1
    22    13    37    1
    23    14    15    1
    24    14    25    2
    25    15    16    1
    26    15    38    1
    27    15    39    1
    28    16    17    1
    29    16    18    1
    30    16    40    1
    31    18    19   ar
    32    18    23   ar
    33    19    20   ar
    34    19    41    1
    35    20    21   ar
    36    20    42    1
    37    21    22   ar
    38    21    24    1
    39    22    23   ar
    40    22    43    1
    41    23    44    1
    42    24    45    1
    43    26    46    1
    44    27    47    1
    45    28    48    1
    46    29    49    1
    47    30    50    1
    48     1    31    1
    49     1    27    1
    50     2    32    1
    51     2    28    1
    52     4    34    1
    53     4    30    1
