@<TRIPOS>MOLECULE
*****
 50 53 0 0 0
SMALL
GASTEIGER

@<TRIPOS>ATOM
     1 C         -0.672323   -1.07614   1.777838 C.3        1 UNL1     0.1889
     2 C         -0.544515   -0.922079   0.2384 C.3        1 UNL1     0.1342
     3 C         -1.880949   -0.925025   -0.519493 C.3        1 UNL1     0.1174
     4 C         -2.920908   -1.851994   0.114803 C.3        1 UNL1     0.1456
     5 C         -3.012428   -1.679006   1.641912 C.3        1 UNL1     0.2326
     6 O         -1.734411   -1.901095   2.233703 O.3        1 UNL1     -0.3076
     7 O         -3.612998   -0.434045   2.042797 O.3        1 UNL1     -0.4605
     8 C         -4.336238   -0.461736   3.221645 C.ar        1 UNL1     0.1310
     9 C         -5.26876   -1.442119   3.577387 C.ar        1 UNL1     0.0226
     10 C         -5.939501   -1.391405   4.805164 C.ar        1 UNL1     0.1343
     11 C         -5.676174   -0.371017   5.718022 C.ar        1 UNL1     0.1007
     12 C         -4.777332   0.636188   5.356907 C.ar        1 UNL1     0.1389
     13 C         -4.104996   0.58641   4.121222 C.ar        1 UNL1     0.0229
     14 C         -6.293602   -0.314861   7.063304 C.2        1 UNL1     0.1740
     15 C         -5.731291   0.71996   7.993089 C.3        1 UNL1     0.0520
     16 C         -5.469013   1.991106   7.197253 C.3        1 UNL1     0.1322
     17 O         -4.524437   1.743775   6.132512 O.3        1 UNL1     -0.4828
     18 C         -6.742941   2.717612   6.759052 C.ar        1 UNL1     -0.0067
     19 C         -6.870516   3.146399   5.421861 C.ar        1 UNL1     -0.0516
     20 C         -8.001625   3.85508   4.999573 C.ar        1 UNL1     -0.0198
     21 C         -9.00646   4.146976   5.904521 C.ar        1 UNL1     0.1169
     22 C         -8.924954   3.709126   7.219999 C.ar        1 UNL1     -0.0198
     23 C         -7.802424   2.984428   7.638085 C.ar        1 UNL1     -0.0516
     24 O         -10.075454   4.871789   5.466004 O.3        1 UNL1     -0.5068
     25 O         -7.153984   -1.103483   7.445798 O.2        1 UNL1     -0.2917
     26 O         -6.837784   -2.377776   5.091075 O.3        1 UNL1     -0.5058
     27 O         -0.6322   0.158897   2.474875 O.3        1 UNL1     -0.3648
     28 O         0.236787   -2.020806   -0.266645 O.3        1 UNL1     -0.3841
     29 O         -2.364342   0.407577   -0.700152 O.3        1 UNL1     -0.3863
     30 O         -2.573937   -3.223188   -0.176962 O.3        1 UNL1     -0.3829
     31 H         0.225707   -1.605302   2.114897 H        1 UNL1     0.0937
     32 H         0.0   0.0   -0.0 H        1 UNL1     0.0671
     33 H         -1.691126   -1.306383   -1.532534 H        1 UNL1     0.0649
     34 H         -3.90552   -1.668988   -0.329549 H        1 UNL1     0.0683
     35 H         -3.660422   -2.504077   1.963222 H        1 UNL1     0.1085
     36 H         -5.476429   -2.291217   2.935493 H        1 UNL1     0.0691
     37 H         -3.410856   1.383383   3.863353 H        1 UNL1     0.0691
     38 H         -4.802957   0.318339   8.413117 H        1 UNL1     0.0385
     39 H         -6.435834   0.884316   8.815515 H        1 UNL1     0.0385
     40 H         -4.95098   2.691074   7.866736 H        1 UNL1     0.0789
     41 H         -6.091449   2.937733   4.694424 H        1 UNL1     0.0623
     42 H         -8.082844   4.190636   3.968643 H        1 UNL1     0.0654
     43 H         -9.71301   3.919182   7.933268 H        1 UNL1     0.0654
     44 H         -7.776796   2.648853   8.670353 H        1 UNL1     0.0623
     45 H         -9.75842   5.744195   5.181198 H        1 UNL1     0.2921
     46 H         -6.590992   -2.808369   5.924798 H        1 UNL1     0.2922
     47 H         0.166594   0.650847   2.238709 H        1 UNL1     0.2126
     48 H         1.129378   -1.92985   0.119025 H        1 UNL1     0.2101
     49 H         -1.801899   0.879453   -1.334804 H        1 UNL1     0.2100
     50 H         -2.661539   -3.357266   -1.143431 H        1 UNL1     0.2102
@<TRIPOS>BOND
     1     1     2    1
     2     1     6    1
     3     2     3    1
     4     3     4    1
     5     3    29    1
     6     3    33    1
     7     4     5    1
     8     5     6    1
     9     5     7    1
    10     5    35    1
    11     7     8    1
    12     8     9   ar
    13     8    13   ar
    14     9    10   ar
    15     9    36    1
    16    10    11   ar
    17    10    26    1
    18    11    12   ar
    19    11    14    1
    20    12    13   ar
    21    12    17    1
    22    13    37    1
    23    14    15    1
    24    14    25    2
    25    15    16    1
    26    15    38    1
    27    15    39    1
    28    16    17    1
    29    16    18    1
    30    16    40    1
    31    18    19   ar
    32    18    23   ar
    33    19    20   ar
    34    19    41    1
    35    20    21   ar
    36    20    42    1
    37    21    22   ar
    38    21    24    1
    39    22    23   ar
    40    22    43    1
    41    23    44    1
    42    24    45    1
    43    26    46    1
    44    27    47    1
    45    28    48    1
    46    29    49    1
    47    30    50    1
    48     1    31    1
    49     1    27    1
    50     2    32    1
    51     2    28    1
    52     4    34    1
    53     4    30    1
