@<TRIPOS>MOLECULE
*****
 50 53 0 0 0
SMALL
GASTEIGER

@<TRIPOS>ATOM
     1 C         -0.320622   -1.335856   1.698086 C.3        1 UNL1     0.1889
     2 C         -0.459527   -0.977096   0.194112 C.3        1 UNL1     0.1342
     3 C         -1.903106   -0.965257   -0.33163 C.3        1 UNL1     0.1174
     4 C         -2.783922   -2.028936   0.328573 C.3        1 UNL1     0.1456
     5 C         -2.624382   -2.06017   1.859564 C.3        1 UNL1     0.2326
     6 O         -1.25728   -2.276952   2.201479 O.3        1 UNL1     -0.3076
     7 O         -3.198198   -0.916911   2.519121 O.3        1 UNL1     -0.4605
     8 C         -3.700774   -1.13846   3.788712 C.ar        1 UNL1     0.1310
     9 C         -4.51291   -2.214625   4.16235 C.ar        1 UNL1     0.0226
     10 C         -4.958628   -2.361184   5.481349 C.ar        1 UNL1     0.1343
     11 C         -4.583042   -1.447155   6.464878 C.ar        1 UNL1     0.1007
     12 C         -3.806132   -0.345981   6.095272 C.ar        1 UNL1     0.1389
     13 C         -3.360278   -0.197407   4.768407 C.ar        1 UNL1     0.0229
     14 C         -4.955883   -1.599435   7.890344 C.2        1 UNL1     0.1740
     15 C         -4.283909   -0.653572   8.841839 C.3        1 UNL1     0.0520
     16 C         -4.220934   0.721144   8.190573 C.3        1 UNL1     0.1322
     17 O         -3.468729   0.670762   6.958209 O.3        1 UNL1     -0.4828
     18 C         -5.582263   1.411194   8.075083 C.ar        1 UNL1     -0.0067
     19 C         -5.969046   1.978114   6.84333 C.ar        1 UNL1     -0.0516
     20 C         -7.186436   2.657619   6.716062 C.ar        1 UNL1     -0.0198
     21 C         -8.020632   2.783139   7.812505 C.ar        1 UNL1     0.1169
     22 C         -7.68269   2.206786   9.030065 C.ar        1 UNL1     -0.0198
     23 C         -6.473833   1.511331   9.152798 C.ar        1 UNL1     -0.0516
     24 O         -9.180626   3.484336   7.660396 O.3        1 UNL1     -0.5068
     25 O         -5.700645   -2.48433   8.303593 O.2        1 UNL1     -0.2917
     26 O         -5.749125   -3.432342   5.780211 O.3        1 UNL1     -0.5058
     27 O         -0.213215   -0.200836   2.542467 O.3        1 UNL1     -0.3648
     28 O         0.268977   -1.950992   -0.576287 O.3        1 UNL1     -0.3841
     29 O         -2.462708   0.346941   -0.247278 O.3        1 UNL1     -0.3863
     30 O         -2.43653   -3.326921   -0.200807 O.3        1 UNL1     -0.3829
     31 H         0.641641   -1.847304   1.810107 H        1 UNL1     0.0937
     32 H         0.0   0.0   0.0 H        1 UNL1     0.0671
     33 H         -1.871143   -1.200392   -1.404667 H        1 UNL1     0.0649
     34 H         -3.835697   -1.851633   0.078103 H        1 UNL1     0.0683
     35 H         -3.17577   -2.958357   2.164705 H        1 UNL1     0.1085
     36 H         -4.793461   -2.989105   3.456947 H        1 UNL1     0.0691
     37 H         -2.75743   0.669332   4.506051 H        1 UNL1     0.0691
     38 H         -3.279677   -1.042421   9.041443 H        1 UNL1     0.0385
     39 H         -4.839124   -0.639431   9.785933 H        1 UNL1     0.0385
     40 H         -3.623863   1.364944   8.850534 H        1 UNL1     0.0789
     41 H         -5.327713   1.901185   5.970161 H        1 UNL1     0.0623
     42 H         -7.468004   3.100699   5.764005 H        1 UNL1     0.0654
     43 H         -8.335495   2.286118   9.891147 H        1 UNL1     0.0654
     44 H         -6.246633   1.064613   10.115953 H        1 UNL1     0.0623
     45 H         -8.957869   4.393383   7.402076 H        1 UNL1     0.2921
     46 H         -5.340395   -3.946887   6.494071 H        1 UNL1     0.2922
     47 H         0.527241   0.355487   2.263021 H        1 UNL1     0.2126
     48 H         1.203201   -1.884462   -0.299643 H        1 UNL1     0.2101
     49 H         -2.028282   0.932758   -0.887503 H        1 UNL1     0.2100
     50 H         -2.674648   -3.338585   -1.151005 H        1 UNL1     0.2102
@<TRIPOS>BOND
     1     1     2    1
     2     1     6    1
     3     2     3    1
     4     3     4    1
     5     3    29    1
     6     3    33    1
     7     4     5    1
     8     5     6    1
     9     5     7    1
    10     5    35    1
    11     7     8    1
    12     8     9   ar
    13     8    13   ar
    14     9    10   ar
    15     9    36    1
    16    10    11   ar
    17    10    26    1
    18    11    12   ar
    19    11    14    1
    20    12    13   ar
    21    12    17    1
    22    13    37    1
    23    14    15    1
    24    14    25    2
    25    15    16    1
    26    15    38    1
    27    15    39    1
    28    16    17    1
    29    16    18    1
    30    16    40    1
    31    18    19   ar
    32    18    23   ar
    33    19    20   ar
    34    19    41    1
    35    20    21   ar
    36    20    42    1
    37    21    22   ar
    38    21    24    1
    39    22    23   ar
    40    22    43    1
    41    23    44    1
    42    24    45    1
    43    26    46    1
    44    27    47    1
    45    28    48    1
    46    29    49    1
    47    30    50    1
    48     1    31    1
    49     1    27    1
    50     2    32    1
    51     2    28    1
    52     4    34    1
    53     4    30    1
