@<TRIPOS>MOLECULE
*****
 50 53 0 0 0
SMALL
GASTEIGER

@<TRIPOS>ATOM
     1 C         -1.388985   -1.397465   -0.942665 C.3        1 UNL1     0.1889
     2 C         -0.917322   0.041377   -0.600309 C.3        1 UNL1     0.1342
     3 C         -1.958542   0.899792   0.134163 C.3        1 UNL1     0.1174
     4 C         -3.392448   0.606197   -0.313979 C.3        1 UNL1     0.1456
     5 C         -3.691516   -0.902417   -0.384726 C.3        1 UNL1     0.2326
     6 O         -2.765429   -1.54097   -1.260787 O.3        1 UNL1     -0.3076
     7 O         -3.774502   -1.531532   0.907036 O.3        1 UNL1     -0.4605
     8 C         -4.398528   -2.765608   0.941334 C.ar        1 UNL1     0.1310
     9 C         -5.735217   -3.007332   0.60647 C.ar        1 UNL1     0.0226
     10 C         -6.271671   -4.299454   0.656871 C.ar        1 UNL1     0.1343
     11 C         -5.477228   -5.385844   1.02082 C.ar        1 UNL1     0.1007
     12 C         -4.15199   -5.151187   1.396934 C.ar        1 UNL1     0.1389
     13 C         -3.613547   -3.851501   1.348717 C.ar        1 UNL1     0.0229
     14 C         -5.969515   -6.782875   1.010211 C.2        1 UNL1     0.1740
     15 C         -4.924789   -7.840968   1.211544 C.3        1 UNL1     0.0520
     16 C         -3.952197   -7.360628   2.279859 C.3        1 UNL1     0.1322
     17 O         -3.312302   -6.130334   1.874911 O.3        1 UNL1     -0.4828
     18 C         -4.549754   -7.331014   3.688678 C.ar        1 UNL1     -0.0067
     19 C         -3.707295   -7.08977   4.793341 C.ar        1 UNL1     -0.0516
     20 C         -4.212962   -7.102942   6.098749 C.ar        1 UNL1     -0.0198
     21 C         -5.55479   -7.362808   6.312743 C.ar        1 UNL1     0.1169
     22 C         -6.415936   -7.570986   5.243197 C.ar        1 UNL1     -0.0198
     23 C         -5.914095   -7.539599   3.936588 C.ar        1 UNL1     -0.0516
     24 O         -6.003786   -7.404977   7.599998 O.3        1 UNL1     -0.5068
     25 O         -7.135848   -7.086968   0.774249 O.2        1 UNL1     -0.2917
     26 O         -7.582834   -4.467533   0.318958 O.3        1 UNL1     -0.5058
     27 O         -0.964788   -2.370467   -0.001331 O.3        1 UNL1     -0.3648
     28 O         -0.592572   0.719205   -1.828231 O.3        1 UNL1     -0.3841
     29 O         -1.789862   0.800713   1.549741 O.3        1 UNL1     -0.3863
     30 O         -3.608303   1.18385   -1.619894 O.3        1 UNL1     -0.3829
     31 H         -0.88077   -1.680719   -1.87087 H        1 UNL1     0.0937
     32 H         0.0   0.0   0.0 H        1 UNL1     0.0671
     33 H         -1.758293   1.952278   -0.110573 H        1 UNL1     0.0649
     34 H         -4.103106   1.084115   0.369367 H        1 UNL1     0.0683
     35 H         -4.675384   -0.954684   -0.867583 H        1 UNL1     0.1085
     36 H         -6.389225   -2.21379   0.261964 H        1 UNL1     0.0691
     37 H         -2.579284   -3.695163   1.647634 H        1 UNL1     0.0691
     38 H         -4.416295   -7.990915   0.253172 H        1 UNL1     0.0385
     39 H         -5.414404   -8.780495   1.489653 H        1 UNL1     0.0385
     40 H         -3.134788   -8.092891   2.326251 H        1 UNL1     0.0789
     41 H         -2.648608   -6.892353   4.652422 H        1 UNL1     0.0623
     42 H         -3.550888   -6.927245   6.943023 H        1 UNL1     0.0654
     43 H         -7.471329   -7.760475   5.398599 H        1 UNL1     0.0654
     44 H         -6.617347   -7.695945   3.124284 H        1 UNL1     0.0623
     45 H         -5.243802   -7.555954   8.185103 H        1 UNL1     0.2921
     46 H         -7.671098   -5.241052   -0.260083 H        1 UNL1     0.2922
     47 H         -1.399807   -3.216804   -0.175494 H        1 UNL1     0.2126
     48 H         0.358998   0.934671   -1.785553 H        1 UNL1     0.2101
     49 H         -1.015804   0.251501   1.752213 H        1 UNL1     0.2100
     50 H         -2.751323   1.184816   -2.094548 H        1 UNL1     0.2102
@<TRIPOS>BOND
     1     1     2    1
     2     1     6    1
     3     2     3    1
     4     3     4    1
     5     3    29    1
     6     3    33    1
     7     4     5    1
     8     5     6    1
     9     5     7    1
    10     5    35    1
    11     7     8    1
    12     8     9   ar
    13     8    13   ar
    14     9    10   ar
    15     9    36    1
    16    10    11   ar
    17    10    26    1
    18    11    12   ar
    19    11    14    1
    20    12    13   ar
    21    12    17    1
    22    13    37    1
    23    14    15    1
    24    14    25    2
    25    15    16    1
    26    15    38    1
    27    15    39    1
    28    16    17    1
    29    16    18    1
    30    16    40    1
    31    18    19   ar
    32    18    23   ar
    33    19    20   ar
    34    19    41    1
    35    20    21   ar
    36    20    42    1
    37    21    22   ar
    38    21    24    1
    39    22    23   ar
    40    22    43    1
    41    23    44    1
    42    24    45    1
    43    26    46    1
    44    27    47    1
    45    28    48    1
    46    29    49    1
    47    30    50    1
    48     1    31    1
    49     1    27    1
    50     2    32    1
    51     2    28    1
    52     4    34    1
    53     4    30    1
