@<TRIPOS>MOLECULE
*****
 50 53 0 0 0
SMALL
GASTEIGER

@<TRIPOS>ATOM
     1 C         -0.339191   -1.333157   1.696598 C.3        1 UNL1     0.1889
     2 C         -0.46574   -0.974673   0.191469 C.3        1 UNL1     0.1342
     3 C         -1.905514   -0.955986   -0.344411 C.3        1 UNL1     0.1174
     4 C         -2.796233   -2.014846   0.310229 C.3        1 UNL1     0.1456
     5 C         -2.647608   -2.045893   1.842322 C.3        1 UNL1     0.2326
     6 O         -1.284038   -2.269258   2.193966 O.3        1 UNL1     -0.3076
     7 O         -3.220341   -0.899371   2.497139 O.3        1 UNL1     -0.4605
     8 C         -3.733344   -1.117708   3.763111 C.ar        1 UNL1     0.1310
     9 C         -4.553734   -2.189491   4.131269 C.ar        1 UNL1     0.0226
     10 C         -5.009857   -2.333108   5.447031 C.ar        1 UNL1     0.1343
     11 C         -4.636783   -1.420546   6.432875 C.ar        1 UNL1     0.1007
     12 C         -3.851518   -0.323569   6.068479 C.ar        1 UNL1     0.1389
     13 C         -3.395191   -0.177944   4.744852 C.ar        1 UNL1     0.0229
     14 C         -5.020842   -1.570206   7.855638 C.2        1 UNL1     0.1740
     15 C         -4.350992   -0.627353   8.811607 C.3        1 UNL1     0.0520
     16 C         -4.276159   0.746702   8.160201 C.3        1 UNL1     0.1322
     17 O         -3.515212   0.691843   6.933408 O.3        1 UNL1     -0.4828
     18 C         -5.633029   1.4437   8.034422 C.ar        1 UNL1     -0.0067
     19 C         -6.00666   2.014451   6.800381 C.ar        1 UNL1     -0.0516
     20 C         -7.219552   2.700205   6.664011 C.ar        1 UNL1     -0.0198
     21 C         -8.06227   2.828174   7.753634 C.ar        1 UNL1     0.1169
     22 C         -7.737406   2.248256   8.973059 C.ar        1 UNL1     -0.0198
     23 C         -6.533088   1.546601   9.104796 C.ar        1 UNL1     -0.0516
     24 O         -9.217453   3.535373   7.59294 O.3        1 UNL1     -0.5068
     25 O         -5.773165   -2.451051   8.263814 O.2        1 UNL1     -0.2917
     26 O         -5.808035   -3.400033   5.740572 O.3        1 UNL1     -0.5058
     27 O         -0.232066   -0.198145   2.541027 O.3        1 UNL1     -0.3648
     28 O         0.263297   -1.952675   -0.573202 O.3        1 UNL1     -0.3841
     29 O         -2.459152   0.359034   -0.264788 O.3        1 UNL1     -0.3863
     30 O         -2.4516   -3.314883   -0.215911 O.3        1 UNL1     -0.3829
     31 H         0.619702   -1.849316   1.815689 H        1 UNL1     0.0937
     32 H         0.0   0.0   0.0 H        1 UNL1     0.0671
     33 H         -1.867186   -1.191964   -1.417055 H        1 UNL1     0.0649
     34 H         -3.845326   -1.832471   0.052267 H        1 UNL1     0.0683
     35 H         -3.205592   -2.94113   2.144125 H        1 UNL1     0.1085
     36 H         -4.833097   -2.96286   3.424178 H        1 UNL1     0.0691
     37 H         -2.785976   0.68555   4.486532 H        1 UNL1     0.0691
     38 H         -3.350268   -1.021274   9.018744 H        1 UNL1     0.0385
     39 H         -4.913032   -0.609891   9.751599 H        1 UNL1     0.0385
     40 H         -3.68063   1.387739   8.824232 H        1 UNL1     0.0789
     41 H         -5.358425   1.935685   5.932488 H        1 UNL1     0.0623
     42 H         -7.490931   3.146159   5.71034 H        1 UNL1     0.0654
     43 H         -8.396999   2.329501   9.828773 H        1 UNL1     0.0654
     44 H         -6.316185   1.097263   10.069106 H        1 UNL1     0.0623
     45 H         -8.987817   4.445905   7.346127 H        1 UNL1     0.2921
     46 H         -5.407897   -3.915552   6.458584 H        1 UNL1     0.2922
     47 H         0.51141   0.35573   2.264756 H        1 UNL1     0.2126
     48 H         1.198674   -1.878904   -0.302353 H        1 UNL1     0.2101
     49 H         -2.019348   0.941545   -0.904356 H        1 UNL1     0.2100
     50 H         -2.68832   -3.327885   -1.166441 H        1 UNL1     0.2102
@<TRIPOS>BOND
     1     1     2    1
     2     1     6    1
     3     2     3    1
     4     3     4    1
     5     3    29    1
     6     3    33    1
     7     4     5    1
     8     5     6    1
     9     5     7    1
    10     5    35    1
    11     7     8    1
    12     8     9   ar
    13     8    13   ar
    14     9    10   ar
    15     9    36    1
    16    10    11   ar
    17    10    26    1
    18    11    12   ar
    19    11    14    1
    20    12    13   ar
    21    12    17    1
    22    13    37    1
    23    14    15    1
    24    14    25    2
    25    15    16    1
    26    15    38    1
    27    15    39    1
    28    16    17    1
    29    16    18    1
    30    16    40    1
    31    18    19   ar
    32    18    23   ar
    33    19    20   ar
    34    19    41    1
    35    20    21   ar
    36    20    42    1
    37    21    22   ar
    38    21    24    1
    39    22    23   ar
    40    22    43    1
    41    23    44    1
    42    24    45    1
    43    26    46    1
    44    27    47    1
    45    28    48    1
    46    29    49    1
    47    30    50    1
    48     1    31    1
    49     1    27    1
    50     2    32    1
    51     2    28    1
    52     4    34    1
    53     4    30    1
