@<TRIPOS>MOLECULE
*****
 50 53 0 0 0
SMALL
GASTEIGER

@<TRIPOS>ATOM
     1 C         -0.640387   1.920798   0.819293 C.3        1 UNL1     0.1889
     2 C         -0.191861   1.017967   -0.36124 C.3        1 UNL1     0.1342
     3 C         1.045442   1.522003   -1.119852 C.3        1 UNL1     0.1174
     4 C         1.109477   3.04914   -1.202733 C.3        1 UNL1     0.1456
     5 C         0.826647   3.726065   0.150834 C.3        1 UNL1     0.2326
     6 O         -0.44754   3.316463   0.642304 O.3        1 UNL1     -0.3076
     7 O         1.88538   3.553543   1.110334 O.3        1 UNL1     -0.4605
     8 C         2.974742   4.394241   0.968761 C.ar        1 UNL1     0.1310
     9 C         3.159679   5.313043   -0.069942 C.ar        1 UNL1     0.0226
     10 C         4.292153   6.134787   -0.116227 C.ar        1 UNL1     0.1343
     11 C         5.256507   6.074336   0.888863 C.ar        1 UNL1     0.1007
     12 C         5.103186   5.132057   1.909347 C.ar        1 UNL1     0.1389
     13 C         3.965711   4.304068   1.954241 C.ar        1 UNL1     0.0229
     14 C         6.429949   6.977175   0.934362 C.2        1 UNL1     0.1740
     15 C         7.240047   6.925922   2.19637 C.3        1 UNL1     0.0520
     16 C         7.350854   5.473452   2.639097 C.3        1 UNL1     0.1322
     17 O         6.043276   4.912455   2.889282 O.3        1 UNL1     -0.4828
     18 C         8.24486   4.62046   1.735835 C.ar        1 UNL1     -0.0067
     19 C         9.531503   5.08641   1.395754 C.ar        1 UNL1     -0.0516
     20 C         10.35626   4.353669   0.533879 C.ar        1 UNL1     -0.0198
     21 C         9.904125   3.159819   0.000845 C.ar        1 UNL1     0.1169
     22 C         8.655082   2.658429   0.34339 C.ar        1 UNL1     -0.0198
     23 C         7.837411   3.381877   1.2198 C.ar        1 UNL1     -0.0516
     24 O         10.720269   2.492609   -0.864684 O.3        1 UNL1     -0.5068
     25 O         6.698525   7.782127   0.04644 O.2        1 UNL1     -0.2917
     26 O         4.413159   7.008934   -1.156808 O.3        1 UNL1     -0.5058
     27 O         -0.161484   1.481691   2.080492 O.3        1 UNL1     -0.3648
     28 O         -1.272138   0.936901   -1.309468 O.3        1 UNL1     -0.3841
     29 O         2.238384   0.94635   -0.583527 O.3        1 UNL1     -0.3863
     30 O         0.13772   3.512488   -2.165379 O.3        1 UNL1     -0.3829
     31 H         -1.728663   1.820146   0.894159 H        1 UNL1     0.0937
     32 H         0.0   0.0   0.0 H        1 UNL1     0.0671
     33 H         0.980518   1.150163   -2.151957 H        1 UNL1     0.0649
     34 H         2.094608   3.363021   -1.565222 H        1 UNL1     0.0683
     35 H         0.744992   4.791522   -0.098193 H        1 UNL1     0.1085
     36 H         2.419329   5.447399   -0.850935 H        1 UNL1     0.0691
     37 H         3.870515   3.577886   2.75866 H        1 UNL1     0.0691
     38 H         6.720409   7.529442   2.948212 H        1 UNL1     0.0385
     39 H         8.220337   7.378596   2.012262 H        1 UNL1     0.0385
     40 H         7.843113   5.471004   3.621032 H        1 UNL1     0.0789
     41 H         9.905991   6.025052   1.7937 H        1 UNL1     0.0623
     42 H         11.341706   4.729408   0.269821 H        1 UNL1     0.0654
     43 H         8.297124   1.717186   -0.056407 H        1 UNL1     0.0654
     44 H         6.871926   2.955183   1.473994 H        1 UNL1     0.0623
     45 H         11.555749   2.981902   -0.937362 H        1 UNL1     0.2921
     46 H         3.654332   6.909057   -1.753144 H        1 UNL1     0.2922
     47 H         -0.669462   0.716177   2.383488 H        1 UNL1     0.2126
     48 H         -0.981668   1.420877   -2.106416 H        1 UNL1     0.2101
     49 H         3.015748   1.340039   -1.010737 H        1 UNL1     0.2100
     50 H         -0.202321   2.732025   -2.650107 H        1 UNL1     0.2102
@<TRIPOS>BOND
     1     1     2    1
     2     1     6    1
     3     2     3    1
     4     3     4    1
     5     3    29    1
     6     3    33    1
     7     4     5    1
     8     5     6    1
     9     5     7    1
    10     5    35    1
    11     7     8    1
    12     8     9   ar
    13     8    13   ar
    14     9    10   ar
    15     9    36    1
    16    10    11   ar
    17    10    26    1
    18    11    12   ar
    19    11    14    1
    20    12    13   ar
    21    12    17    1
    22    13    37    1
    23    14    15    1
    24    14    25    2
    25    15    16    1
    26    15    38    1
    27    15    39    1
    28    16    17    1
    29    16    18    1
    30    16    40    1
    31    18    19   ar
    32    18    23   ar
    33    19    20   ar
    34    19    41    1
    35    20    21   ar
    36    20    42    1
    37    21    22   ar
    38    21    24    1
    39    22    23   ar
    40    22    43    1
    41    23    44    1
    42    24    45    1
    43    26    46    1
    44    27    47    1
    45    28    48    1
    46    29    49    1
    47    30    50    1
    48     1    31    1
    49     1    27    1
    50     2    32    1
    51     2    28    1
    52     4    34    1
    53     4    30    1
