@<TRIPOS>MOLECULE
*****
 50 53 0 0 0
SMALL
GASTEIGER

@<TRIPOS>ATOM
     1 C         -0.58042   -1.416821   1.557734 C.3        1 UNL1     0.1889
     2 C         -0.583845   -0.92488   0.085347 C.3        1 UNL1     0.1342
     3 C         -1.981049   -0.692181   -0.509748 C.3        1 UNL1     0.1174
     4 C         -3.021046   -1.687583   0.01054 C.3        1 UNL1     0.1456
     5 C         -2.959707   -1.860291   1.539191 C.3        1 UNL1     0.2326
     6 O         -1.651591   -2.271553   1.929784 O.3        1 UNL1     -0.3076
     7 O         -3.431924   -0.710912   2.265318 O.3        1 UNL1     -0.4605
     8 C         -4.040756   -0.969494   3.48022 C.ar        1 UNL1     0.1310
     9 C         -5.001251   -1.960273   3.710669 C.ar        1 UNL1     0.0226
     10 C         -5.547884   -2.156006   4.984554 C.ar        1 UNL1     0.1343
     11 C         -5.129375   -1.380642   6.065064 C.ar        1 UNL1     0.1007
     12 C         -4.200975   -0.360981   5.838903 C.ar        1 UNL1     0.1389
     13 C         -3.65344   -0.162632   4.557383 C.ar        1 UNL1     0.0229
     14 C         -5.611587   -1.600006   7.448359 C.2        1 UNL1     0.1740
     15 C         -4.893554   -0.828327   8.516296 C.3        1 UNL1     0.0520
     16 C         -4.620087   0.57569   7.994847 C.3        1 UNL1     0.1322
     17 O         -3.799743   0.530624   6.80654 O.3        1 UNL1     -0.4828
     18 C         -5.876238   1.440691   7.866075 C.ar        1 UNL1     -0.0067
     19 C         -6.10702   2.15312   6.671337 C.ar        1 UNL1     -0.0516
     20 C         -7.221126   2.990353   6.538028 C.ar        1 UNL1     -0.0198
     21 C         -8.105884   3.12907   7.592442 C.ar        1 UNL1     0.1169
     22 C         -7.923658   2.414724   8.769447 C.ar        1 UNL1     -0.0198
     23 C         -6.81964   1.563192   8.896308 C.ar        1 UNL1     -0.0516
     24 O         -9.158834   3.982508   7.439661 O.3        1 UNL1     -0.5068
     25 O         -6.484612   -2.413537   7.739012 O.2        1 UNL1     -0.2917
     26 O         -6.481387   -3.138491   5.14229 O.3        1 UNL1     -0.5058
     27 O         -0.389771   -0.374832   2.501502 O.3        1 UNL1     -0.3648
     28 O         0.068623   -1.917103   -0.728584 O.3        1 UNL1     -0.3841
     29 O         -2.384055   0.668372   -0.340594 O.3        1 UNL1     -0.3863
     30 O         -2.799596   -2.972283   -0.610905 O.3        1 UNL1     -0.3829
     31 H         0.305294   -2.050982   1.673617 H        1 UNL1     0.0937
     32 H         0.0   0.0   0.0 H        1 UNL1     0.0671
     33 H         -1.912243   -0.843188   -1.59611 H        1 UNL1     0.0649
     34 H         -4.026948   -1.361775   -0.276532 H        1 UNL1     0.0683
     35 H         -3.63191   -2.704578   1.737189 H        1 UNL1     0.1085
     36 H         -5.327011   -2.632508   2.924475 H        1 UNL1     0.0691
     37 H         -2.933161   0.63872   4.407294 H        1 UNL1     0.0691
     38 H         -3.9598   -1.356958   8.735793 H        1 UNL1     0.0385
     39 H         -5.504163   -0.820658   9.425624 H        1 UNL1     0.0385
     40 H         -3.993839   1.082124   8.741745 H        1 UNL1     0.0789
     41 H         -5.42239   2.068339   5.832443 H        1 UNL1     0.0623
     42 H         -7.38169   3.543629   5.616011 H        1 UNL1     0.0654
     43 H         -8.618539   2.504349   9.595896 H        1 UNL1     0.0654
     44 H         -6.714106   1.012317   9.825956 H        1 UNL1     0.0623
     45 H         -8.810314   4.879279   7.309073 H        1 UNL1     0.2921
     46 H         -6.187413   -3.756687   5.829913 H        1 UNL1     0.2922
     47 H         0.42242   0.111925   2.303328 H        1 UNL1     0.2126
     48 H         0.991109   -1.974947   -0.413298 H        1 UNL1     0.2101
     49 H         -1.850412   1.244012   -0.911258 H        1 UNL1     0.2100
     50 H         -2.984694   -2.879928   -1.568466 H        1 UNL1     0.2102
@<TRIPOS>BOND
     1     1     2    1
     2     1     6    1
     3     2     3    1
     4     3     4    1
     5     3    29    1
     6     3    33    1
     7     4     5    1
     8     5     6    1
     9     5     7    1
    10     5    35    1
    11     7     8    1
    12     8     9   ar
    13     8    13   ar
    14     9    10   ar
    15     9    36    1
    16    10    11   ar
    17    10    26    1
    18    11    12   ar
    19    11    14    1
    20    12    13   ar
    21    12    17    1
    22    13    37    1
    23    14    15    1
    24    14    25    2
    25    15    16    1
    26    15    38    1
    27    15    39    1
    28    16    17    1
    29    16    18    1
    30    16    40    1
    31    18    19   ar
    32    18    23   ar
    33    19    20   ar
    34    19    41    1
    35    20    21   ar
    36    20    42    1
    37    21    22   ar
    38    21    24    1
    39    22    23   ar
    40    22    43    1
    41    23    44    1
    42    24    45    1
    43    26    46    1
    44    27    47    1
    45    28    48    1
    46    29    49    1
    47    30    50    1
    48     1    31    1
    49     1    27    1
    50     2    32    1
    51     2    28    1
    52     4    34    1
    53     4    30    1
