@<TRIPOS>MOLECULE
*****
 50 53 0 0 0
SMALL
GASTEIGER

@<TRIPOS>ATOM
     1 C         -0.325757   -1.325329   1.705341 C.3        1 UNL1     0.1889
     2 C         -0.459139   -0.976384   0.198561 C.3        1 UNL1     0.1342
     3 C         -1.900642   -0.969653   -0.332937 C.3        1 UNL1     0.1174
     4 C         -2.782807   -2.030138   0.330595 C.3        1 UNL1     0.1456
     5 C         -2.629283   -2.051365   1.862373 C.3        1 UNL1     0.2326
     6 O         -1.263288   -2.264306   2.211062 O.3        1 UNL1     -0.3076
     7 O         -3.207048   -0.904594   2.512314 O.3        1 UNL1     -0.4605
     8 C         -3.714801   -1.118714   3.78112 C.ar        1 UNL1     0.1310
     9 C         -4.52744   -2.193355   4.158032 C.ar        1 UNL1     0.0226
     10 C         -4.978622   -2.332118   5.476016 C.ar        1 UNL1     0.1343
     11 C         -4.608144   -1.411568   6.455391 C.ar        1 UNL1     0.1007
     12 C         -3.830773   -0.311928   6.082205 C.ar        1 UNL1     0.1389
     13 C         -3.379423   -0.1712   4.756342 C.ar        1 UNL1     0.0229
     14 C         -4.986897   -1.55531   7.880185 C.2        1 UNL1     0.1740
     15 C         -4.319928   -0.602821   8.828587 C.3        1 UNL1     0.0520
     16 C         -4.255561   0.767858   8.169001 C.3        1 UNL1     0.1322
     17 O         -3.498067   0.710541   6.940185 O.3        1 UNL1     -0.4828
     18 C         -5.617078   1.455769   8.043407 C.ar        1 UNL1     -0.0067
     19 C         -5.998009   2.017032   6.807248 C.ar        1 UNL1     -0.0516
     20 C         -7.215514   2.694523   6.670682 C.ar        1 UNL1     -0.0198
     21 C         -8.055649   2.823648   7.762161 C.ar        1 UNL1     0.1169
     22 C         -7.723472   2.252834   8.983909 C.ar        1 UNL1     -0.0198
     23 C         -6.514457   1.559363   9.115962 C.ar        1 UNL1     -0.0516
     24 O         -9.215653   3.522795   7.600967 O.3        1 UNL1     -0.5068
     25 O         -5.732523   -2.438369   8.295796 O.2        1 UNL1     -0.2917
     26 O         -5.769309   -3.402199   5.778216 O.3        1 UNL1     -0.5058
     27 O         -0.223026   -0.184792   2.542842 O.3        1 UNL1     -0.3648
     28 O         0.273551   -1.954321   -0.562695 O.3        1 UNL1     -0.3841
     29 O         -2.462118   0.342384   -0.259212 O.3        1 UNL1     -0.3863
     30 O         -2.431795   -3.331071   -0.189073 O.3        1 UNL1     -0.3829
     31 H         0.636658   -1.83489   1.824437 H        1 UNL1     0.0937
     32 H         0.0   0.0   0.0 H        1 UNL1     0.0671
     33 H         -1.86416   -1.211622   -1.404309 H        1 UNL1     0.0649
     34 H         -3.833791   -1.85571   0.074846 H        1 UNL1     0.0683
     35 H         -3.180813   -2.948241   2.171091 H        1 UNL1     0.1085
     36 H         -4.804209   -2.972522   3.456306 H        1 UNL1     0.0691
     37 H         -2.776334   0.694502   4.49113 H        1 UNL1     0.0691
     38 H         -3.316166   -0.98938   9.034889 H        1 UNL1     0.0385
     39 H         -4.879172   -0.583346   9.770206 H        1 UNL1     0.0385
     40 H         -3.661952   1.416388   8.82745 H        1 UNL1     0.0789
     41 H         -5.351973   1.937204   5.937814 H        1 UNL1     0.0623
     42 H         -7.492565   3.133251   5.715291 H        1 UNL1     0.0654
     43 H         -8.380918   2.335   9.841185 H        1 UNL1     0.0654
     44 H         -6.291827   1.116978   10.082179 H        1 UNL1     0.0623
     45 H         -8.992611   4.431016   7.339998 H        1 UNL1     0.2921
     46 H         -5.363106   -3.911847   6.497014 H        1 UNL1     0.2922
     47 H         0.517872   0.370619   2.262757 H        1 UNL1     0.2126
     48 H         1.206596   -1.884894   -0.2828 H        1 UNL1     0.2101
     49 H         -2.025975   0.924564   -0.901583 H        1 UNL1     0.2100
     50 H         -2.666142   -3.34911   -1.140109 H        1 UNL1     0.2102
@<TRIPOS>BOND
     1     1     2    1
     2     1     6    1
     3     2     3    1
     4     3     4    1
     5     3    29    1
     6     3    33    1
     7     4     5    1
     8     5     6    1
     9     5     7    1
    10     5    35    1
    11     7     8    1
    12     8     9   ar
    13     8    13   ar
    14     9    10   ar
    15     9    36    1
    16    10    11   ar
    17    10    26    1
    18    11    12   ar
    19    11    14    1
    20    12    13   ar
    21    12    17    1
    22    13    37    1
    23    14    15    1
    24    14    25    2
    25    15    16    1
    26    15    38    1
    27    15    39    1
    28    16    17    1
    29    16    18    1
    30    16    40    1
    31    18    19   ar
    32    18    23   ar
    33    19    20   ar
    34    19    41    1
    35    20    21   ar
    36    20    42    1
    37    21    22   ar
    38    21    24    1
    39    22    23   ar
    40    22    43    1
    41    23    44    1
    42    24    45    1
    43    26    46    1
    44    27    47    1
    45    28    48    1
    46    29    49    1
    47    30    50    1
    48     1    31    1
    49     1    27    1
    50     2    32    1
    51     2    28    1
    52     4    34    1
    53     4    30    1
