@<TRIPOS>MOLECULE
*****
 50 53 0 0 0
SMALL
GASTEIGER

@<TRIPOS>ATOM
     1 C         -0.389596   -1.380454   1.64723 C.3        1 UNL1     0.1889
     2 C         -0.49174   -0.968528   0.153971 C.3        1 UNL1     0.1342
     3 C         -1.925027   -0.895622   -0.394517 C.3        1 UNL1     0.1174
     4 C         -2.848439   -1.953132   0.215483 C.3        1 UNL1     0.1456
     5 C         -2.716373   -2.039371   1.74698 C.3        1 UNL1     0.2326
     6 O         -1.362453   -2.308666   2.1037 O.3        1 UNL1     -0.3076
     7 O         -3.267155   -0.90145   2.4348 O.3        1 UNL1     -0.4605
     8 C         -3.80859   -1.151269   3.682986 C.ar        1 UNL1     0.1310
     9 C         -4.663304   -2.213194   3.997754 C.ar        1 UNL1     0.0226
     10 C         -5.146836   -2.391681   5.299385 C.ar        1 UNL1     0.1343
     11 C         -4.767953   -1.525442   6.32404 C.ar        1 UNL1     0.1007
     12 C         -3.947755   -0.437542   6.013344 C.ar        1 UNL1     0.1389
     13 C         -3.463824   -0.256771   4.703931 C.ar        1 UNL1     0.0229
     14 C         -5.181557   -1.715741   7.733605 C.2        1 UNL1     0.1740
     15 C         -4.504713   -0.826127   8.734614 C.3        1 UNL1     0.0520
     16 C         -4.382124   0.567931   8.135005 C.3        1 UNL1     0.1322
     17 O         -3.600734   0.536773   6.920292 O.3        1 UNL1     -0.4828
     18 C         -5.717776   1.305135   8.011357 C.ar        1 UNL1     -0.0067
     19 C         -5.7261   2.66605   7.642503 C.ar        1 UNL1     -0.0516
     20 C         -6.926571   3.382313   7.566353 C.ar        1 UNL1     -0.0198
     21 C         -8.121982   2.752421   7.863097 C.ar        1 UNL1     0.1169
     22 C         -8.149331   1.404569   8.196843 C.ar        1 UNL1     -0.0198
     23 C         -6.950797   0.683337   8.255122 C.ar        1 UNL1     -0.0516
     24 O         -9.26713   3.491826   7.814977 O.3        1 UNL1     -0.5068
     25 O         -5.963966   -2.590182   8.096475 O.2        1 UNL1     -0.2917
     26 O         -5.977868   -3.446669   5.540156 O.3        1 UNL1     -0.5058
     27 O         -0.262998   -0.277511   2.530564 O.3        1 UNL1     -0.3648
     28 O         0.220602   -1.938319   -0.636459 O.3        1 UNL1     -0.3841
     29 O         -2.446629   0.429495   -0.275653 O.3        1 UNL1     -0.3863
     30 O         -2.530809   -3.243016   -0.351086 O.3        1 UNL1     -0.3829
     31 H         0.554912   -1.924288   1.757815 H        1 UNL1     0.0937
     32 H         0.0   0.0   0.0 H        1 UNL1     0.0671
     33 H         -1.881556   -1.096315   -1.474125 H        1 UNL1     0.0649
     34 H         -3.889976   -1.735852   -0.046036 H        1 UNL1     0.0683
     35 H         -3.299485   -2.929919   2.013035 H        1 UNL1     0.1085
     36 H         -4.949938   -2.952903   3.2583 H        1 UNL1     0.0691
     37 H         -2.827624   0.598793   4.487704 H        1 UNL1     0.0691
     38 H         -3.51857   -1.253928   8.944456 H        1 UNL1     0.0385
     39 H         -5.083071   -0.827363   9.664818 H        1 UNL1     0.0385
     40 H         -3.782167   1.168509   8.832055 H        1 UNL1     0.0789
     41 H         -4.800213   3.18565   7.413594 H        1 UNL1     0.0623
     42 H         -6.918733   4.434387   7.292325 H        1 UNL1     0.0654
     43 H         -9.081355   0.897624   8.416497 H        1 UNL1     0.0654
     44 H         -7.01039   -0.37065   8.508903 H        1 UNL1     0.0623
     45 H         -9.029163   4.430615   7.883994 H        1 UNL1     0.2921
     46 H         -5.773845   -3.82751   6.408917 H        1 UNL1     0.2922
     47 H         -0.348977   -0.571806   3.448092 H        1 UNL1     0.2126
     48 H         1.17169   -1.787081   -0.474313 H        1 UNL1     0.2101
     49 H         -3.002393   0.495505   0.517167 H        1 UNL1     0.2100
     50 H         -2.779035   -3.225529   -1.298604 H        1 UNL1     0.2102
@<TRIPOS>BOND
     1     1     2    1
     2     1     6    1
     3     2     3    1
     4     3     4    1
     5     3    29    1
     6     3    33    1
     7     4     5    1
     8     5     6    1
     9     5     7    1
    10     5    35    1
    11     7     8    1
    12     8     9   ar
    13     8    13   ar
    14     9    10   ar
    15     9    36    1
    16    10    11   ar
    17    10    26    1
    18    11    12   ar
    19    11    14    1
    20    12    13   ar
    21    12    17    1
    22    13    37    1
    23    14    15    1
    24    14    25    2
    25    15    16    1
    26    15    38    1
    27    15    39    1
    28    16    17    1
    29    16    18    1
    30    16    40    1
    31    18    19   ar
    32    18    23   ar
    33    19    20   ar
    34    19    41    1
    35    20    21   ar
    36    20    42    1
    37    21    22   ar
    38    21    24    1
    39    22    23   ar
    40    22    43    1
    41    23    44    1
    42    24    45    1
    43    26    46    1
    44    27    47    1
    45    28    48    1
    46    29    49    1
    47    30    50    1
    48     1    31    1
    49     1    27    1
    50     2    32    1
    51     2    28    1
    52     4    34    1
    53     4    30    1
