@<TRIPOS>MOLECULE
*****
 50 53 0 0 0
SMALL
GASTEIGER

@<TRIPOS>ATOM
     1 C         -0.3624   -1.343436   1.683642 C.3        1 UNL1     0.1889
     2 C         -0.478463   -0.970467   0.181189 C.3        1 UNL1     0.1342
     3 C         -1.915727   -0.929405   -0.360153 C.3        1 UNL1     0.1174
     4 C         -2.822034   -1.982796   0.28179 C.3        1 UNL1     0.1456
     5 C         -2.679978   -2.028871   1.814128 C.3        1 UNL1     0.2326
     6 O         -1.320687   -2.27206   2.169171 O.3        1 UNL1     -0.3076
     7 O         -3.241198   -0.881054   2.4766 O.3        1 UNL1     -0.4605
     8 C         -3.761945   -1.103942   3.738611 C.ar        1 UNL1     0.1310
     9 C         -4.596935   -2.168656   4.094248 C.ar        1 UNL1     0.0226
     10 C         -5.060089   -2.317962   5.406917 C.ar        1 UNL1     0.1343
     11 C         -4.679794   -1.418598   6.402085 C.ar        1 UNL1     0.1007
     12 C         -3.879631   -0.328294   6.05029 C.ar        1 UNL1     0.1389
     13 C         -3.416217   -0.176912   4.729775 C.ar        1 UNL1     0.0229
     14 C         -5.071395   -1.575759   7.821981 C.2        1 UNL1     0.1740
     15 C         -4.393855   -0.64951   8.788703 C.3        1 UNL1     0.0520
     16 C         -4.2995   0.729077   8.149523 C.3        1 UNL1     0.1322
     17 O         -3.534348   0.675405   6.925296 O.3        1 UNL1     -0.4828
     18 C         -5.647176   1.443818   8.024464 C.ar        1 UNL1     -0.0067
     19 C         -6.008781   2.029742   6.793957 C.ar        1 UNL1     -0.0516
     20 C         -7.212586   2.731556   6.658775 C.ar        1 UNL1     -0.0198
     21 C         -8.058051   2.860521   7.74615 C.ar        1 UNL1     0.1169
     22 C         -7.745262   2.266157   8.961771 C.ar        1 UNL1     -0.0198
     23 C         -6.550207   1.54859   9.092149 C.ar        1 UNL1     -0.0516
     24 O         -9.20379   3.583274   7.587058 O.3        1 UNL1     -0.5068
     25 O         -5.836135   -2.45074   8.219556 O.2        1 UNL1     -0.2917
     26 O         -5.872508   -3.377449   5.688071 O.3        1 UNL1     -0.5058
     27 O         -0.244724   -0.217148   2.538285 O.3        1 UNL1     -0.3648
     28 O         0.241564   -1.950765   -0.589059 O.3        1 UNL1     -0.3841
     29 O         -2.453462   0.39161   -0.271314 O.3        1 UNL1     -0.3863
     30 O         -2.491303   -3.282405   -0.254236 O.3        1 UNL1     -0.3829
     31 H         0.589584   -1.872391   1.802018 H        1 UNL1     0.0937
     32 H         0.0   0.0   0.0 H        1 UNL1     0.0671
     33 H         -1.875982   -1.15659   -1.434643 H        1 UNL1     0.0649
     34 H         -3.867756   -1.785278   0.021303 H        1 UNL1     0.0683
     35 H         -3.250144   -2.919722   2.105972 H        1 UNL1     0.1085
     36 H         -4.882938   -2.9324   3.379394 H        1 UNL1     0.0691
     37 H         -2.79539   0.681194   4.481337 H        1 UNL1     0.0691
     38 H         -3.398896   -1.057515   8.996344 H        1 UNL1     0.0385
     39 H         -4.959421   -0.633214   9.726598 H        1 UNL1     0.0385
     40 H         -3.698812   1.356975   8.821413 H        1 UNL1     0.0789
     41 H         -5.358072   1.950465   5.927964 H        1 UNL1     0.0623
     42 H         -7.474613   3.189022   5.707945 H        1 UNL1     0.0654
     43 H         -8.407249   2.348158   9.815562 H        1 UNL1     0.0654
     44 H         -6.342736   1.088321   10.053374 H        1 UNL1     0.0623
     45 H         -8.962041   4.492292   7.346308 H        1 UNL1     0.2921
     46 H         -5.480954   -3.904807   6.402207 H        1 UNL1     0.2922
     47 H         0.506617   0.329873   2.269742 H        1 UNL1     0.2126
     48 H         1.176679   -1.890874   -0.313912 H        1 UNL1     0.2101
     49 H         -2.002049   0.974782   -0.902131 H        1 UNL1     0.2100
     50 H         -2.719077   -3.282435   -1.207038 H        1 UNL1     0.2102
@<TRIPOS>BOND
     1     1     2    1
     2     1     6    1
     3     2     3    1
     4     3     4    1
     5     3    29    1
     6     3    33    1
     7     4     5    1
     8     5     6    1
     9     5     7    1
    10     5    35    1
    11     7     8    1
    12     8     9   ar
    13     8    13   ar
    14     9    10   ar
    15     9    36    1
    16    10    11   ar
    17    10    26    1
    18    11    12   ar
    19    11    14    1
    20    12    13   ar
    21    12    17    1
    22    13    37    1
    23    14    15    1
    24    14    25    2
    25    15    16    1
    26    15    38    1
    27    15    39    1
    28    16    17    1
    29    16    18    1
    30    16    40    1
    31    18    19   ar
    32    18    23   ar
    33    19    20   ar
    34    19    41    1
    35    20    21   ar
    36    20    42    1
    37    21    22   ar
    38    21    24    1
    39    22    23   ar
    40    22    43    1
    41    23    44    1
    42    24    45    1
    43    26    46    1
    44    27    47    1
    45    28    48    1
    46    29    49    1
    47    30    50    1
    48     1    31    1
    49     1    27    1
    50     2    32    1
    51     2    28    1
    52     4    34    1
    53     4    30    1
