@<TRIPOS>MOLECULE
*****
 50 53 0 0 0
SMALL
GASTEIGER

@<TRIPOS>ATOM
     1 C         -1.537186   -0.568255   1.443936 C.3        1 UNL1     0.1889
     2 C         -0.666567   0.492809   0.718602 C.3        1 UNL1     0.1342
     3 C         0.170928   1.381297   1.651156 C.3        1 UNL1     0.1174
     4 C         -0.536448   1.685885   2.974017 C.3        1 UNL1     0.1456
     5 C         -1.155019   0.430304   3.615305 C.3        1 UNL1     0.2326
     6 O         -2.064849   -0.182624   2.704593 O.3        1 UNL1     -0.3076
     7 O         -0.177347   -0.48574   4.140987 O.3        1 UNL1     -0.4605
     8 C         0.96541   -0.655166   3.380113 C.ar        1 UNL1     0.1310
     9 C         1.163518   -1.661356   2.428463 C.ar        1 UNL1     0.0226
     10 C         2.353065   -1.739194   1.694418 C.ar        1 UNL1     0.1343
     11 C         3.364856   -0.797593   1.877473 C.ar        1 UNL1     0.1007
     12 C         3.195325   0.187485   2.85403 C.ar        1 UNL1     0.1389
     13 C         2.000227   0.26396   3.593843 C.ar        1 UNL1     0.0229
     14 C         4.606784   -0.782773   1.070286 C.2        1 UNL1     0.1740
     15 C         5.480295   0.424712   1.244948 C.3        1 UNL1     0.0520
     16 C         5.5006   0.795146   2.72154 C.3        1 UNL1     0.1322
     17 O         4.168944   1.098404   3.192494 O.3        1 UNL1     -0.4828
     18 C         6.271793   -0.197177   3.5952 C.ar        1 UNL1     -0.0067
     19 C         5.570034   -1.218751   4.267609 C.ar        1 UNL1     -0.0516
     20 C         6.238275   -2.1136   5.111802 C.ar        1 UNL1     -0.0198
     21 C         7.603893   -1.993098   5.297257 C.ar        1 UNL1     0.1169
     22 C         8.327625   -1.01831   4.62284 C.ar        1 UNL1     -0.0198
     23 C         7.662455   -0.1349   3.764241 C.ar        1 UNL1     -0.0516
     24 O         8.214543   -2.858878   6.156287 O.3        1 UNL1     -0.5068
     25 O         4.887641   -1.64868   0.245781 O.2        1 UNL1     -0.2917
     26 O         2.483905   -2.745391   0.78226 O.3        1 UNL1     -0.5058
     27 O         -0.935382   -1.851858   1.498538 O.3        1 UNL1     -0.3648
     28 O         -1.536152   1.360149   -0.032564 O.3        1 UNL1     -0.3841
     29 O         1.477516   0.832761   1.835729 O.3        1 UNL1     -0.3863
     30 O         -1.584461   2.651463   2.739459 O.3        1 UNL1     -0.3829
     31 H         -2.430204   -0.715158   0.82667 H        1 UNL1     0.0937
     32 H         0.0   0.0   0.0 H        1 UNL1     0.0671
     33 H         0.327562   2.34433   1.145436 H        1 UNL1     0.0649
     34 H         0.167935   2.142083   3.678381 H        1 UNL1     0.0683
     35 H         -1.752916   0.824965   4.446353 H        1 UNL1     0.1085
     36 H         0.393184   -2.389681   2.199886 H        1 UNL1     0.0691
     37 H         1.893445   1.039663   4.349076 H        1 UNL1     0.0691
     38 H         5.053388   1.232462   0.640948 H        1 UNL1     0.0385
     39 H         6.481373   0.202229   0.86008 H        1 UNL1     0.0385
     40 H         6.045817   1.744621   2.80961 H        1 UNL1     0.0789
     41 H         4.496376   -1.328669   4.145838 H        1 UNL1     0.0623
     42 H         5.684163   -2.889668   5.634 H        1 UNL1     0.0654
     43 H         9.399617   -0.924525   4.749126 H        1 UNL1     0.0654
     44 H         8.260862   0.607711   3.245316 H        1 UNL1     0.0623
     45 H         7.540545   -3.229564   6.74877 H        1 UNL1     0.2921
     46 H         2.381514   -2.385753   -0.113055 H        1 UNL1     0.2922
     47 H         -0.381882   -1.928823   2.288205 H        1 UNL1     0.2126
     48 H         -1.260943   2.275157   0.16931 H        1 UNL1     0.2101
     49 H         2.07495   1.164169   1.1465 H        1 UNL1     0.2100
     50 H         -1.305815   3.224002   1.994967 H        1 UNL1     0.2102
@<TRIPOS>BOND
     1     1     2    1
     2     1     6    1
     3     2     3    1
     4     3     4    1
     5     3    29    1
     6     3    33    1
     7     4     5    1
     8     5     6    1
     9     5     7    1
    10     5    35    1
    11     7     8    1
    12     8     9   ar
    13     8    13   ar
    14     9    10   ar
    15     9    36    1
    16    10    11   ar
    17    10    26    1
    18    11    12   ar
    19    11    14    1
    20    12    13   ar
    21    12    17    1
    22    13    37    1
    23    14    15    1
    24    14    25    2
    25    15    16    1
    26    15    38    1
    27    15    39    1
    28    16    17    1
    29    16    18    1
    30    16    40    1
    31    18    19   ar
    32    18    23   ar
    33    19    20   ar
    34    19    41    1
    35    20    21   ar
    36    20    42    1
    37    21    22   ar
    38    21    24    1
    39    22    23   ar
    40    22    43    1
    41    23    44    1
    42    24    45    1
    43    26    46    1
    44    27    47    1
    45    28    48    1
    46    29    49    1
    47    30    50    1
    48     1    31    1
    49     1    27    1
    50     2    32    1
    51     2    28    1
    52     4    34    1
    53     4    30    1
