@<TRIPOS>MOLECULE
*****
 50 53 0 0 0
SMALL
GASTEIGER

@<TRIPOS>ATOM
     1 C         -0.823556   0.247921   2.007759 C.3        1 UNL1     0.1889
     2 C         -0.847146   0.507873   0.477462 C.3        1 UNL1     0.1342
     3 C         -0.831338   1.99153   0.078741 C.3        1 UNL1     0.1174
     4 C         -1.603108   2.877905   1.059468 C.3        1 UNL1     0.1456
     5 C         -1.259401   2.57104   2.528503 C.3        1 UNL1     0.2326
     6 O         -1.511854   1.196266   2.809808 O.3        1 UNL1     -0.3076
     7 O         0.063367   2.992607   2.907827 O.3        1 UNL1     -0.4605
     8 C         0.365029   4.322835   2.677565 C.ar        1 UNL1     0.1310
     9 C         1.591699   4.806367   2.209827 C.ar        1 UNL1     0.0226
     10 C         1.794652   6.174208   1.991369 C.ar        1 UNL1     0.1343
     11 C         0.76712   7.090141   2.212921 C.ar        1 UNL1     0.1007
     12 C         -0.449104   6.62388   2.719068 C.ar        1 UNL1     0.1389
     13 C         -0.652063   5.248774   2.941155 C.ar        1 UNL1     0.0229
     14 C         0.899834   8.535905   1.919139 C.2        1 UNL1     0.1740
     15 C         -0.367529   9.334728   2.004116 C.3        1 UNL1     0.0520
     16 C         -1.163258   8.849221   3.207883 C.3        1 UNL1     0.1322
     17 O         -1.491047   7.448536   3.074827 O.3        1 UNL1     -0.4828
     18 C         -0.539689   9.229805   4.55289 C.ar        1 UNL1     -0.0067
     19 C         -1.324176   9.165792   5.722803 C.ar        1 UNL1     -0.0516
     20 C         -0.79908   9.551989   6.96179 C.ar        1 UNL1     -0.0198
     21 C         0.503833   10.00991   7.042733 C.ar        1 UNL1     0.1169
     22 C         1.31165   10.0527   5.913822 C.ar        1 UNL1     -0.0198
     23 C         0.792593   9.649109   4.6778 C.ar        1 UNL1     -0.0516
     24 O         0.968752   10.413081   8.259986 O.3        1 UNL1     -0.5068
     25 O         1.94872   9.057257   1.54966 O.2        1 UNL1     -0.2917
     26 O         3.014643   6.580942   1.535545 O.3        1 UNL1     -0.5058
     27 O         0.473122   -0.024223   2.515055 O.3        1 UNL1     -0.3648
     28 O         -2.049865   -0.068595   -0.064625 O.3        1 UNL1     -0.3841
     29 O         0.506508   2.443381   -0.14065 O.3        1 UNL1     -0.3863
     30 O         -3.020068   2.679468   0.863159 O.3        1 UNL1     -0.3829
     31 H         -1.379322   -0.681027   2.175868 H        1 UNL1     0.0937
     32 H         0.0   0.0   0.0 H        1 UNL1     0.0671
     33 H         -1.333353   2.082558   -0.894612 H        1 UNL1     0.0649
     34 H         -1.39556   3.933579   0.852399 H        1 UNL1     0.0683
     35 H         -1.993607   3.15342   3.099162 H        1 UNL1     0.1085
     36 H         2.411585   4.13988   1.965485 H        1 UNL1     0.0691
     37 H         -1.607702   4.911442   3.336698 H        1 UNL1     0.0691
     38 H         -0.922499   9.175342   1.073454 H        1 UNL1     0.0385
     39 H         -0.117111   10.398698   2.0751 H        1 UNL1     0.0385
     40 H         -2.134268   9.362059   3.182262 H        1 UNL1     0.0789
     41 H         -2.352571   8.818566   5.684227 H        1 UNL1     0.0623
     42 H         -1.417784   9.509315   7.854761 H        1 UNL1     0.0654
     43 H         2.338042   10.395397   5.96849 H        1 UNL1     0.0654
     44 H         1.455169   9.685631   3.818438 H        1 UNL1     0.0623
     45 H         0.207276   10.611299   8.828828 H        1 UNL1     0.2921
     46 H         3.509855   6.993545   2.260759 H        1 UNL1     0.2922
     47 H         0.916195   0.799837   2.760963 H        1 UNL1     0.2126
     48 H         -2.40381   0.575816   -0.707423 H        1 UNL1     0.2101
     49 H         0.655181   3.277044   0.333372 H        1 UNL1     0.2100
     50 H         -3.345561   2.098539   1.581691 H        1 UNL1     0.2102
@<TRIPOS>BOND
     1     1     2    1
     2     1     6    1
     3     2     3    1
     4     3     4    1
     5     3    29    1
     6     3    33    1
     7     4     5    1
     8     5     6    1
     9     5     7    1
    10     5    35    1
    11     7     8    1
    12     8     9   ar
    13     8    13   ar
    14     9    10   ar
    15     9    36    1
    16    10    11   ar
    17    10    26    1
    18    11    12   ar
    19    11    14    1
    20    12    13   ar
    21    12    17    1
    22    13    37    1
    23    14    15    1
    24    14    25    2
    25    15    16    1
    26    15    38    1
    27    15    39    1
    28    16    17    1
    29    16    18    1
    30    16    40    1
    31    18    19   ar
    32    18    23   ar
    33    19    20   ar
    34    19    41    1
    35    20    21   ar
    36    20    42    1
    37    21    22   ar
    38    21    24    1
    39    22    23   ar
    40    22    43    1
    41    23    44    1
    42    24    45    1
    43    26    46    1
    44    27    47    1
    45    28    48    1
    46    29    49    1
    47    30    50    1
    48     1    31    1
    49     1    27    1
    50     2    32    1
    51     2    28    1
    52     4    34    1
    53     4    30    1
