@<TRIPOS>MOLECULE
*****
 50 53 0 0 0
SMALL
GASTEIGER

@<TRIPOS>ATOM
     1 C         -0.337658   -1.331493   1.69821 C.3        1 UNL1     0.1889
     2 C         -0.465298   -0.974624   0.192789 C.3        1 UNL1     0.1342
     3 C         -1.905425   -0.956966   -0.342177 C.3        1 UNL1     0.1174
     4 C         -2.795374   -2.01543   0.314146 C.3        1 UNL1     0.1456
     5 C         -2.645747   -2.044828   1.846175 C.3        1 UNL1     0.2326
     6 O         -1.281877   -2.267381   2.197168 O.3        1 UNL1     -0.3076
     7 O         -3.21843   -0.897808   2.500164 O.3        1 UNL1     -0.4605
     8 C         -3.730541   -1.114989   3.766695 C.ar        1 UNL1     0.1310
     9 C         -4.550344   -2.186653   4.136505 C.ar        1 UNL1     0.0226
     10 C         -5.005568   -2.329042   5.452711 C.ar        1 UNL1     0.1343
     11 C         -4.632153   -1.41533   6.437359 C.ar        1 UNL1     0.1007
     12 C         -3.847482   -0.318479   6.071308 C.ar        1 UNL1     0.1389
     13 C         -3.392059   -0.174088   4.747234 C.ar        1 UNL1     0.0229
     14 C         -5.015242   -1.563627   7.860526 C.2        1 UNL1     0.1740
     15 C         -4.34508   -0.619557   8.815075 C.3        1 UNL1     0.0520
     16 C         -4.271117   0.75384   8.162185 C.3        1 UNL1     0.1322
     17 O         -3.510947   0.697947   6.934957 O.3        1 UNL1     -0.4828
     18 C         -5.628296   1.450265   8.036556 C.ar        1 UNL1     -0.0067
     19 C         -6.002912   2.019603   6.802162 C.ar        1 UNL1     -0.0516
     20 C         -7.216116   2.70482   6.665862 C.ar        1 UNL1     -0.0198
     21 C         -8.05817   2.833654   7.755895 C.ar        1 UNL1     0.1169
     22 C         -7.732327   2.255117   8.975715 C.ar        1 UNL1     -0.0198
     23 C         -6.527695   1.553992   9.107405 C.ar        1 UNL1     -0.0516
     24 O         -9.213687   3.540309   7.595211 O.3        1 UNL1     -0.5068
     25 O         -5.767013   -2.44429   8.27011 O.2        1 UNL1     -0.2917
     26 O         -5.803208   -3.39592   5.747885 O.3        1 UNL1     -0.5058
     27 O         -0.230356   -0.195564   2.541382 O.3        1 UNL1     -0.3648
     28 O         0.263563   -1.953187   -0.571332 O.3        1 UNL1     -0.3841
     29 O         -2.45944   0.357957   -0.26357 O.3        1 UNL1     -0.3863
     30 O         -2.450658   -3.315904   -0.210858 O.3        1 UNL1     -0.3829
     31 H         0.621481   -1.847215   1.817219 H        1 UNL1     0.0937
     32 H         0.0   0.0   0.0 H        1 UNL1     0.0671
     33 H         -1.867714   -1.194053   -1.414598 H        1 UNL1     0.0649
     34 H         -3.844693   -1.833667   0.056674 H        1 UNL1     0.0683
     35 H         -3.203244   -2.93993   2.149274 H        1 UNL1     0.1085
     36 H         -4.829912   -2.960852   3.430403 H        1 UNL1     0.0691
     37 H         -2.783294   0.689333   4.487617 H        1 UNL1     0.0691
     38 H         -3.344094   -1.012935   9.021975 H        1 UNL1     0.0385
     39 H         -4.906517   -0.601295   9.755412 H        1 UNL1     0.0385
     40 H         -3.675368   1.395765   8.825159 H        1 UNL1     0.0789
     41 H         -5.355213   1.940141   5.933932 H        1 UNL1     0.0623
     42 H         -7.488257   3.149689   5.7119 H        1 UNL1     0.0654
     43 H         -8.391392   2.337041   9.831771 H        1 UNL1     0.0654
     44 H         -6.310021   1.105733   10.072043 H        1 UNL1     0.0623
     45 H         -8.984575   4.449926   7.344568 H        1 UNL1     0.2921
     46 H         -5.402437   -3.910558   6.466176 H        1 UNL1     0.2922
     47 H         0.512761   0.358263   2.264051 H        1 UNL1     0.2126
     48 H         1.199091   -1.878829   -0.301165 H        1 UNL1     0.2101
     49 H         -2.018337   0.940628   -0.902096 H        1 UNL1     0.2100
     50 H         -2.682764   -3.328061   -1.162536 H        1 UNL1     0.2102
@<TRIPOS>BOND
     1     1     2    1
     2     1     6    1
     3     2     3    1
     4     3     4    1
     5     3    29    1
     6     3    33    1
     7     4     5    1
     8     5     6    1
     9     5     7    1
    10     5    35    1
    11     7     8    1
    12     8     9   ar
    13     8    13   ar
    14     9    10   ar
    15     9    36    1
    16    10    11   ar
    17    10    26    1
    18    11    12   ar
    19    11    14    1
    20    12    13   ar
    21    12    17    1
    22    13    37    1
    23    14    15    1
    24    14    25    2
    25    15    16    1
    26    15    38    1
    27    15    39    1
    28    16    17    1
    29    16    18    1
    30    16    40    1
    31    18    19   ar
    32    18    23   ar
    33    19    20   ar
    34    19    41    1
    35    20    21   ar
    36    20    42    1
    37    21    22   ar
    38    21    24    1
    39    22    23   ar
    40    22    43    1
    41    23    44    1
    42    24    45    1
    43    26    46    1
    44    27    47    1
    45    28    48    1
    46    29    49    1
    47    30    50    1
    48     1    31    1
    49     1    27    1
    50     2    32    1
    51     2    28    1
    52     4    34    1
    53     4    30    1
