@<TRIPOS>MOLECULE
*****
 50 53 0 0 0
SMALL
GASTEIGER

@<TRIPOS>ATOM
     1 C         -0.345514   -1.336257   1.69288 C.3        1 UNL1     0.1889
     2 C         -0.469121   -0.97363   0.188498 C.3        1 UNL1     0.1342
     3 C         -1.908192   -0.948946   -0.349024 C.3        1 UNL1     0.1174
     4 C         -2.80311   -2.006534   0.301935 C.3        1 UNL1     0.1456
     5 C         -2.656398   -2.041865   1.83412 C.3        1 UNL1     0.2326
     6 O         -1.293976   -2.270521   2.186809 O.3        1 UNL1     -0.3076
     7 O         -3.226188   -0.895121   2.491111 O.3        1 UNL1     -0.4605
     8 C         -3.741393   -1.114934   3.755933 C.ar        1 UNL1     0.1310
     9 C         -4.56498   -2.185436   4.120667 C.ar        1 UNL1     0.0226
     10 C         -5.023179   -2.330783   5.435517 C.ar        1 UNL1     0.1343
     11 C         -4.649076   -1.421341   6.423849 C.ar        1 UNL1     0.1007
     12 C         -3.860556   -0.325565   6.062888 C.ar        1 UNL1     0.1389
     13 C         -3.402136   -0.178191   4.740177 C.ar        1 UNL1     0.0229
     14 C         -5.035367   -1.57315   7.84578 C.2        1 UNL1     0.1740
     15 C         -4.364373   -0.634104   8.80469 C.3        1 UNL1     0.0520
     16 C         -4.285204   0.741184   8.156406 C.3        1 UNL1     0.1322
     17 O         -3.522801   0.687088   6.930484 O.3        1 UNL1     -0.4828
     18 C         -5.640137   1.441901   8.030401 C.ar        1 UNL1     -0.0067
     19 C         -6.01071   2.016309   6.797135 C.ar        1 UNL1     -0.0516
     20 C         -7.221679   2.705441   6.660701 C.ar        1 UNL1     -0.0198
     21 C         -8.065489   2.833156   7.749508 C.ar        1 UNL1     0.1169
     22 C         -7.743686   2.249737   8.968075 C.ar        1 UNL1     -0.0198
     23 C         -6.541325   1.544737   9.09983 C.ar        1 UNL1     -0.0516
     24 O         -9.218663   3.543639   7.588872 O.3        1 UNL1     -0.5068
     25 O         -5.790454   -2.452976   8.251041 O.2        1 UNL1     -0.2917
     26 O         -5.824444   -3.39632   5.725674 O.3        1 UNL1     -0.5058
     27 O         -0.235712   -0.203697   2.540252 O.3        1 UNL1     -0.3648
     28 O         0.257649   -1.95209   -0.577744 O.3        1 UNL1     -0.3841
     29 O         -2.457661   0.367661   -0.266783 O.3        1 UNL1     -0.3863
     30 O         -2.462068   -3.306371   -0.227029 O.3        1 UNL1     -0.3829
     31 H         0.611561   -1.855816   1.811813 H        1 UNL1     0.0937
     32 H         0.0   0.0   0.0 H        1 UNL1     0.0671
     33 H         -1.86936   -1.182384   -1.422206 H        1 UNL1     0.0649
     34 H         -3.8513   -1.820119   0.043195 H        1 UNL1     0.0683
     35 H         -3.217636   -2.936034   2.13304 H        1 UNL1     0.1085
     36 H         -4.845382   -2.956538   3.411514 H        1 UNL1     0.0691
     37 H         -2.790396   0.684318   4.484548 H        1 UNL1     0.0691
     38 H         -3.364923   -1.03102   9.012258 H        1 UNL1     0.0385
     39 H         -4.927591   -0.617279   9.743988 H        1 UNL1     0.0385
     40 H         -3.688917   1.379246   8.822618 H        1 UNL1     0.0789
     41 H         -5.361546   1.937804   5.929913 H        1 UNL1     0.0623
     42 H         -7.490682   3.154177   5.707661 H        1 UNL1     0.0654
     43 H         -8.404186   2.330777   9.823109 H        1 UNL1     0.0654
     44 H         -6.32682   1.092732   10.063429 H        1 UNL1     0.0623
     45 H         -8.986396   4.454124   7.344361 H        1 UNL1     0.2921
     46 H         -5.426552   -3.91443   6.443069 H        1 UNL1     0.2922
     47 H         0.509039   0.349163   2.265386 H        1 UNL1     0.2126
     48 H         1.192939   -1.882024   -0.305614 H        1 UNL1     0.2101
     49 H         -2.019038   0.948975   -0.908248 H        1 UNL1     0.2100
     50 H         -2.697704   -3.316246   -1.177866 H        1 UNL1     0.2102
@<TRIPOS>BOND
     1     1     2    1
     2     1     6    1
     3     2     3    1
     4     3     4    1
     5     3    29    1
     6     3    33    1
     7     4     5    1
     8     5     6    1
     9     5     7    1
    10     5    35    1
    11     7     8    1
    12     8     9   ar
    13     8    13   ar
    14     9    10   ar
    15     9    36    1
    16    10    11   ar
    17    10    26    1
    18    11    12   ar
    19    11    14    1
    20    12    13   ar
    21    12    17    1
    22    13    37    1
    23    14    15    1
    24    14    25    2
    25    15    16    1
    26    15    38    1
    27    15    39    1
    28    16    17    1
    29    16    18    1
    30    16    40    1
    31    18    19   ar
    32    18    23   ar
    33    19    20   ar
    34    19    41    1
    35    20    21   ar
    36    20    42    1
    37    21    22   ar
    38    21    24    1
    39    22    23   ar
    40    22    43    1
    41    23    44    1
    42    24    45    1
    43    26    46    1
    44    27    47    1
    45    28    48    1
    46    29    49    1
    47    30    50    1
    48     1    31    1
    49     1    27    1
    50     2    32    1
    51     2    28    1
    52     4    34    1
    53     4    30    1
