@<TRIPOS>MOLECULE
*****
 50 53 0 0 0
SMALL
GASTEIGER

@<TRIPOS>ATOM
     1 C         -1.862147   -1.009025   0.533932 C.3        1 UNL1     0.1889
     2 C         -0.917504   -0.336735   -0.498355 C.3        1 UNL1     0.1342
     3 C         -1.536923   0.845248   -1.259737 C.3        1 UNL1     0.1174
     4 C         -3.030344   0.655531   -1.5369 C.3        1 UNL1     0.1456
     5 C         -3.80419   0.172856   -0.296517 C.3        1 UNL1     0.2326
     6 O         -3.238516   -1.04358   0.186356 O.3        1 UNL1     -0.3076
     7 O         -3.937105   1.179263   0.723679 O.3        1 UNL1     -0.4605
     8 C         -4.916288   0.953231   1.674278 C.ar        1 UNL1     0.1310
     9 C         -6.288741   0.862973   1.418298 C.ar        1 UNL1     0.0226
     10 C         -7.202408   0.613794   2.449329 C.ar        1 UNL1     0.1343
     11 C         -6.763058   0.424981   3.758971 C.ar        1 UNL1     0.1007
     12 C         -5.398938   0.553498   4.033643 C.ar        1 UNL1     0.1389
     13 C         -4.480723   0.806674   2.9972 C.ar        1 UNL1     0.0229
     14 C         -7.675855   0.076205   4.872214 C.2        1 UNL1     0.1740
     15 C         -7.010648   -0.308669   6.160982 C.3        1 UNL1     0.0520
     16 C         -5.820258   0.614151   6.383092 C.3        1 UNL1     0.1322
     17 O         -4.869608   0.494082   5.301928 O.3        1 UNL1     -0.4828
     18 C         -6.211983   2.053378   6.726462 C.ar        1 UNL1     -0.0067
     19 C         -5.216598   2.961804   7.141415 C.ar        1 UNL1     -0.0516
     20 C         -5.547463   4.271743   7.508224 C.ar        1 UNL1     -0.0198
     21 C         -6.868034   4.682319   7.471503 C.ar        1 UNL1     0.1169
     22 C         -7.866363   3.820971   7.035318 C.ar        1 UNL1     -0.0198
     23 C         -7.53338   2.516611   6.650839 C.ar        1 UNL1     -0.0516
     24 O         -7.157004   5.953708   7.872086 O.3        1 UNL1     -0.5068
     25 O         -8.89692   0.019363   4.752826 O.2        1 UNL1     -0.2917
     26 O         -8.527555   0.538693   2.133209 O.3        1 UNL1     -0.5058
     27 O         -1.668653   -0.547804   1.86157 O.3        1 UNL1     -0.3648
     28 O         -0.534379   -1.322202   -1.475482 O.3        1 UNL1     -0.3841
     29 O         -1.248865   2.079958   -0.600461 O.3        1 UNL1     -0.3863
     30 O         -3.196517   -0.31431   -2.594011 O.3        1 UNL1     -0.3829
     31 H         -1.581127   -2.067149   0.572415 H        1 UNL1     0.0937
     32 H         0.0   0.0   0.0 H        1 UNL1     0.0671
     33 H         -1.038453   0.912977   -2.236805 H        1 UNL1     0.0649
     34 H         -3.467051   1.595321   -1.892544 H        1 UNL1     0.0683
     35 H         -4.800953   -0.071006   -0.68494 H        1 UNL1     0.1085
     36 H         -6.687926   0.944744   0.413267 H        1 UNL1     0.0691
     37 H         -3.424111   0.903341   3.237448 H        1 UNL1     0.0691
     38 H         -6.689981   -1.351901   6.069514 H        1 UNL1     0.0385
     39 H         -7.741067   -0.245441   6.974782 H        1 UNL1     0.0385
     40 H         -5.281743   0.241314   7.264859 H        1 UNL1     0.0789
     41 H         -4.173948   2.661138   7.187572 H        1 UNL1     0.0623
     42 H         -4.772389   4.959229   7.837821 H        1 UNL1     0.0654
     43 H         -8.901719   4.136789   6.988346 H        1 UNL1     0.0654
     44 H         -8.337306   1.873883   6.305227 H        1 UNL1     0.0623
     45 H         -6.424357   6.276103   8.421638 H        1 UNL1     0.2921
     46 H         -8.925   -0.223089   2.583916 H        1 UNL1     0.2922
     47 H         -2.369343   -0.88333   2.438037 H        1 UNL1     0.2126
     48 H         0.434288   -1.42429   -1.404807 H        1 UNL1     0.2101
     49 H         -0.674516   1.91915   0.165083 H        1 UNL1     0.2100
     50 H         -2.444633   -0.940723   -2.549414 H        1 UNL1     0.2102
@<TRIPOS>BOND
     1     1     2    1
     2     1     6    1
     3     2     3    1
     4     3     4    1
     5     3    29    1
     6     3    33    1
     7     4     5    1
     8     5     6    1
     9     5     7    1
    10     5    35    1
    11     7     8    1
    12     8     9   ar
    13     8    13   ar
    14     9    10   ar
    15     9    36    1
    16    10    11   ar
    17    10    26    1
    18    11    12   ar
    19    11    14    1
    20    12    13   ar
    21    12    17    1
    22    13    37    1
    23    14    15    1
    24    14    25    2
    25    15    16    1
    26    15    38    1
    27    15    39    1
    28    16    17    1
    29    16    18    1
    30    16    40    1
    31    18    19   ar
    32    18    23   ar
    33    19    20   ar
    34    19    41    1
    35    20    21   ar
    36    20    42    1
    37    21    22   ar
    38    21    24    1
    39    22    23   ar
    40    22    43    1
    41    23    44    1
    42    24    45    1
    43    26    46    1
    44    27    47    1
    45    28    48    1
    46    29    49    1
    47    30    50    1
    48     1    31    1
    49     1    27    1
    50     2    32    1
    51     2    28    1
    52     4    34    1
    53     4    30    1
