@<TRIPOS>MOLECULE
*****
 50 53 0 0 0
SMALL
GASTEIGER

@<TRIPOS>ATOM
     1 C         -0.330284   -1.918389   -0.990707 C.3        1 UNL1     0.1889
     2 C         0.002172   -1.06512   0.262826 C.3        1 UNL1     0.1342
     3 C         1.337644   -1.411748   0.938716 C.3        1 UNL1     0.1174
     4 C         1.66866   -2.904587   0.868166 C.3        1 UNL1     0.1456
     5 C         1.453134   -3.491075   -0.538939 C.3        1 UNL1     0.2326
     6 O         0.108495   -3.26849   -0.95759 O.3        1 UNL1     -0.3076
     7 O         2.426424   -3.045456   -1.500943 O.3        1 UNL1     -0.4605
     8 C         2.751242   -3.948249   -2.49743 C.ar        1 UNL1     0.1310
     9 C         3.030219   -5.305192   -2.302038 C.ar        1 UNL1     0.0226
     10 C         3.332987   -6.144475   -3.380851 C.ar        1 UNL1     0.1343
     11 C         3.340771   -5.651808   -4.685098 C.ar        1 UNL1     0.1007
     12 C         3.104085   -4.289713   -4.888715 C.ar        1 UNL1     0.1389
     13 C         2.802277   -3.445472   -3.803542 C.ar        1 UNL1     0.0229
     14 C         3.571579   -6.511286   -5.869234 C.2        1 UNL1     0.1740
     15 C         3.324212   -5.86342   -7.199884 C.3        1 UNL1     0.0520
     16 C         3.859014   -4.438866   -7.149011 C.3        1 UNL1     0.1322
     17 O         3.193068   -3.677663   -6.117431 O.3        1 UNL1     -0.4828
     18 C         5.386893   -4.355224   -7.112777 C.ar        1 UNL1     -0.0067
     19 C         6.079321   -3.84639   -8.230741 C.ar        1 UNL1     -0.0516
     20 C         7.478423   -3.800178   -8.249134 C.ar        1 UNL1     -0.0198
     21 C         8.195172   -4.265524   -7.161222 C.ar        1 UNL1     0.1169
     22 C         7.541005   -4.741322   -6.032276 C.ar        1 UNL1     -0.0198
     23 C         6.141532   -4.770529   -6.006234 C.ar        1 UNL1     -0.0516
     24 O         9.557136   -4.23978   -7.230444 O.3        1 UNL1     -0.5068
     25 O         3.867601   -7.700897   -5.793848 O.2        1 UNL1     -0.2917
     26 O         3.596725   -7.457973   -3.122492 O.3        1 UNL1     -0.5058
     27 O         0.014074   -1.285598   -2.21291 O.3        1 UNL1     -0.3648
     28 O         -1.03672   -1.265003   1.239276 O.3        1 UNL1     -0.3841
     29 O         2.390182   -0.587053   0.43456 O.3        1 UNL1     -0.3863
     30 O         0.831487   -3.620125   1.802424 O.3        1 UNL1     -0.3829
     31 H         -1.421654   -2.00473   -1.029896 H        1 UNL1     0.0937
     32 H         0.0   0.0   0.0 H        1 UNL1     0.0671
     33 H         1.250888   -1.155455   2.003849 H        1 UNL1     0.0649
     34 H         2.707071   -3.072296   1.174725 H        1 UNL1     0.0683
     35 H         1.567465   -4.572784   -0.395016 H        1 UNL1     0.1085
     36 H         2.985347   -5.760752   -1.318894 H        1 UNL1     0.0691
     37 H         2.622956   -2.388538   -3.988545 H        1 UNL1     0.0691
     38 H         2.2435   -5.873471   -7.377331 H        1 UNL1     0.0385
     39 H         3.805093   -6.45847   -7.983751 H        1 UNL1     0.0385
     40 H         3.563287   -3.948418   -8.086309 H        1 UNL1     0.0789
     41 H         5.539924   -3.483522   -9.100816 H        1 UNL1     0.0623
     42 H         8.001073   -3.416581   -9.12189 H        1 UNL1     0.0654
     43 H         8.092232   -5.094219   -5.16884 H        1 UNL1     0.0654
     44 H         5.663297   -5.138806   -5.103732 H        1 UNL1     0.0623
     45 H         9.874406   -3.462805   -6.742216 H        1 UNL1     0.2921
     46 H         3.211058   -8.009015   -3.821796 H        1 UNL1     0.2922
     47 H         -0.785091   -1.04243   -2.700828 H        1 UNL1     0.2126
     48 H         -0.593736   -1.351022   2.105357 H        1 UNL1     0.2101
     49 H         2.886121   -1.065774   -0.248569 H        1 UNL1     0.2100
     50 H         0.112891   -4.050857   1.294682 H        1 UNL1     0.2102
@<TRIPOS>BOND
     1     1     2    1
     2     1     6    1
     3     2     3    1
     4     3     4    1
     5     3    29    1
     6     3    33    1
     7     4     5    1
     8     5     6    1
     9     5     7    1
    10     5    35    1
    11     7     8    1
    12     8     9   ar
    13     8    13   ar
    14     9    10   ar
    15     9    36    1
    16    10    11   ar
    17    10    26    1
    18    11    12   ar
    19    11    14    1
    20    12    13   ar
    21    12    17    1
    22    13    37    1
    23    14    15    1
    24    14    25    2
    25    15    16    1
    26    15    38    1
    27    15    39    1
    28    16    17    1
    29    16    18    1
    30    16    40    1
    31    18    19   ar
    32    18    23   ar
    33    19    20   ar
    34    19    41    1
    35    20    21   ar
    36    20    42    1
    37    21    22   ar
    38    21    24    1
    39    22    23   ar
    40    22    43    1
    41    23    44    1
    42    24    45    1
    43    26    46    1
    44    27    47    1
    45    28    48    1
    46    29    49    1
    47    30    50    1
    48     1    31    1
    49     1    27    1
    50     2    32    1
    51     2    28    1
    52     4    34    1
    53     4    30    1
