@<TRIPOS>MOLECULE
*****
 50 53 0 0 0
SMALL
GASTEIGER

@<TRIPOS>ATOM
     1 C         -0.699526   0.464291   -2.016408 C.3        1 UNL1     0.1889
     2 C         0.382707   0.490263   -0.903736 C.3        1 UNL1     0.1342
     3 C         0.890817   1.892787   -0.536018 C.3        1 UNL1     0.1174
     4 C         0.947896   2.837644   -1.738975 C.3        1 UNL1     0.1456
     5 C         -0.333642   2.78686   -2.590705 C.3        1 UNL1     0.2326
     6 O         -0.57321   1.451511   -3.029244 O.3        1 UNL1     -0.3076
     7 O         -1.473842   3.384164   -1.946892 O.3        1 UNL1     -0.4605
     8 C         -2.386856   2.504909   -1.392959 C.ar        1 UNL1     0.1310
     9 C         -2.281486   1.10995   -1.409876 C.ar        1 UNL1     0.0226
     10 C         -3.252568   0.303406   -0.804574 C.ar        1 UNL1     0.1343
     11 C         -4.341382   0.873548   -0.146347 C.ar        1 UNL1     0.1007
     12 C         -4.478927   2.264132   -0.158209 C.ar        1 UNL1     0.1389
     13 C         -3.503756   3.074794   -0.769191 C.ar        1 UNL1     0.0229
     14 C         -5.352103   0.07202   0.581767 C.2        1 UNL1     0.1740
     15 C         -6.323369   0.854603   1.415885 C.3        1 UNL1     0.0520
     16 C         -6.721898   2.105501   0.64492 C.3        1 UNL1     0.1322
     17 O         -5.565831   2.925368   0.364931 O.3        1 UNL1     -0.4828
     18 C         -7.609194   1.823939   -0.570051 C.ar        1 UNL1     -0.0067
     19 C         -8.183288   2.902878   -1.273273 C.ar        1 UNL1     -0.0516
     20 C         -9.037507   2.679049   -2.35963 C.ar        1 UNL1     -0.0198
     21 C         -9.330662   1.383773   -2.747118 C.ar        1 UNL1     0.1169
     22 C         -8.754276   0.30121   -2.095447 C.ar        1 UNL1     -0.0198
     23 C         -7.88546   0.525097   -1.020697 C.ar        1 UNL1     -0.0516
     24 O         -10.196519   1.204142   -3.785591 O.3        1 UNL1     -0.5068
     25 O         -5.366992   -1.156091   0.584633 O.2        1 UNL1     -0.2917
     26 O         -3.091496   -1.050421   -0.857408 O.3        1 UNL1     -0.5058
     27 O         -2.024751   0.395343   -1.514602 O.3        1 UNL1     -0.3648
     28 O         1.517927   -0.27229   -1.353729 O.3        1 UNL1     -0.3841
     29 O         0.144195   2.43227   0.556523 O.3        1 UNL1     -0.3863
     30 O         2.072479   2.478221   -2.570731 O.3        1 UNL1     -0.3829
     31 H         -0.567419   -0.477957   -2.559359 H        1 UNL1     0.0937
     32 H         0.0   0.0   0.0 H        1 UNL1     0.0671
     33 H         1.919648   1.789793   -0.163704 H        1 UNL1     0.0649
     34 H         1.115964   3.865678   -1.399417 H        1 UNL1     0.0683
     35 H         -0.082263   3.375076   -3.482158 H        1 UNL1     0.1085
     36 H         -1.430378   0.607777   -1.856596 H        1 UNL1     0.0691
     37 H         -3.634649   4.154769   -0.765617 H        1 UNL1     0.0691
     38 H         -5.821263   1.112357   2.35449 H        1 UNL1     0.0385
     39 H         -7.185453   0.221416   1.651816 H        1 UNL1     0.0385
     40 H         -7.336658   2.718413   1.31792 H        1 UNL1     0.0789
     41 H         -7.976118   3.928789   -0.983034 H        1 UNL1     0.0623
     42 H         -9.483384   3.519163   -2.886331 H        1 UNL1     0.0654
     43 H         -8.965144   -0.716925   -2.400153 H        1 UNL1     0.0654
     44 H         -7.444797   -0.343734   -0.541328 H        1 UNL1     0.0623
     45 H         -9.932266   1.793351   -4.510657 H        1 UNL1     0.2921
     46 H         -3.773125   -1.435185   -1.430776 H        1 UNL1     0.2922
     47 H         -2.573933   1.078148   -1.924525 H        1 UNL1     0.2126
     48 H         2.299618   0.093809   -0.896933 H        1 UNL1     0.2101
     49 H         0.250317   3.396503   0.584572 H        1 UNL1     0.2100
     50 H         1.800368   1.726926   -3.137498 H        1 UNL1     0.2102
@<TRIPOS>BOND
     1     1     2    1
     2     1     6    1
     3     2     3    1
     4     3     4    1
     5     3    29    1
     6     3    33    1
     7     4     5    1
     8     5     6    1
     9     5     7    1
    10     5    35    1
    11     7     8    1
    12     8     9   ar
    13     8    13   ar
    14     9    10   ar
    15     9    36    1
    16    10    11   ar
    17    10    26    1
    18    11    12   ar
    19    11    14    1
    20    12    13   ar
    21    12    17    1
    22    13    37    1
    23    14    15    1
    24    14    25    2
    25    15    16    1
    26    15    38    1
    27    15    39    1
    28    16    17    1
    29    16    18    1
    30    16    40    1
    31    18    19   ar
    32    18    23   ar
    33    19    20   ar
    34    19    41    1
    35    20    21   ar
    36    20    42    1
    37    21    22   ar
    38    21    24    1
    39    22    23   ar
    40    22    43    1
    41    23    44    1
    42    24    45    1
    43    26    46    1
    44    27    47    1
    45    28    48    1
    46    29    49    1
    47    30    50    1
    48     1    31    1
    49     1    27    1
    50     2    32    1
    51     2    28    1
    52     4    34    1
    53     4    30    1
