@<TRIPOS>MOLECULE
*****
 50 53 0 0 0
SMALL
GASTEIGER

@<TRIPOS>ATOM
     1 C         -1.042915   1.319591   -1.393489 C.3        1 UNL1     0.1889
     2 C         0.243751   0.827557   -0.677715 C.3        1 UNL1     0.1342
     3 C         0.995892   1.913166   0.10727 C.3        1 UNL1     0.1174
     4 C         0.920108   3.288464   -0.56051 C.3        1 UNL1     0.1456
     5 C         -0.507798   3.648614   -1.009663 C.3        1 UNL1     0.2326
     6 O         -1.005993   2.647753   -1.894507 O.3        1 UNL1     -0.3076
     7 O         -1.398916   3.93078   0.084691 O.3        1 UNL1     -0.4605
     8 C         -1.512971   5.261175   0.446033 C.ar        1 UNL1     0.1310
     9 C         -2.702609   5.997236   0.462675 C.ar        1 UNL1     0.0226
     10 C         -2.717946   7.339034   0.861729 C.ar        1 UNL1     0.1343
     11 C         -1.54669   7.971144   1.276984 C.ar        1 UNL1     0.1007
     12 C         -0.345752   7.25848   1.225593 C.ar        1 UNL1     0.1389
     13 C         -0.330168   5.9101   0.821788 C.ar        1 UNL1     0.0229
     14 C         -1.519463   9.361203   1.788013 C.2        1 UNL1     0.1740
     15 C         -0.221747   9.803473   2.397832 C.3        1 UNL1     0.0520
     16 C         0.919467   9.25708   1.551048 C.3        1 UNL1     0.1322
     17 O         0.880718   7.813563   1.5083 O.3        1 UNL1     -0.4828
     18 C         1.047244   9.929064   0.181803 C.ar        1 UNL1     -0.0067
     19 C         2.314943   10.021685   -0.428587 C.ar        1 UNL1     -0.0516
     20 C         2.474349   10.671678   -1.658247 C.ar        1 UNL1     -0.0198
     21 C         1.377591   11.23828   -2.282675 C.ar        1 UNL1     0.1169
     22 C         0.110895   11.134338   -1.722749 C.ar        1 UNL1     -0.0198
     23 C         -0.051793   10.468339   -0.502079 C.ar        1 UNL1     -0.0516
     24 O         1.577628   11.896099   -3.460665 O.3        1 UNL1     -0.5068
     25 O         -2.502591   10.097306   1.79788 O.2        1 UNL1     -0.2917
     26 O         -3.911002   8.000961   0.854353 O.3        1 UNL1     -0.5058
     27 O         -2.229846   1.070308   -0.657391 O.3        1 UNL1     -0.3648
     28 O         1.149473   0.31201   -1.670984 O.3        1 UNL1     -0.3841
     29 O         0.573259   1.936626   1.472174 O.3        1 UNL1     -0.3863
     30 O         1.787348   3.302844   -1.71523 O.3        1 UNL1     -0.3829
     31 H         -1.151979   0.708392   -2.296051 H        1 UNL1     0.0937
     32 H         0.0   0.0   0.0 H        1 UNL1     0.0671
     33 H         2.057812   1.631647   0.13545 H        1 UNL1     0.0649
     34 H         1.288204   4.058541   0.12643 H        1 UNL1     0.0683
     35 H         -0.375954   4.562017   -1.603119 H        1 UNL1     0.1085
     36 H         -3.655133   5.547383   0.204894 H        1 UNL1     0.0691
     37 H         0.618008   5.377738   0.789433 H        1 UNL1     0.0691
     38 H         -0.182446   9.405758   3.41754 H        1 UNL1     0.0385
     39 H         -0.206998   10.897148   2.456449 H        1 UNL1     0.0385
     40 H         1.854378   9.491144   2.077997 H        1 UNL1     0.0789
     41 H         3.192982   9.593087   0.045754 H        1 UNL1     0.0623
     42 H         3.45901   10.746856   -2.113001 H        1 UNL1     0.0654
     43 H         -0.757207   11.561332   -2.210586 H        1 UNL1     0.0654
     44 H         -1.057305   10.396851   -0.098743 H        1 UNL1     0.0623
     45 H         0.98136   12.661836   -3.489422 H        1 UNL1     0.2921
     46 H         -4.236717   8.070587   -0.056951 H        1 UNL1     0.2922
     47 H         -2.990598   1.027057   -1.253416 H        1 UNL1     0.2126
     48 H         1.467796   1.079351   -2.184394 H        1 UNL1     0.2101
     49 H         1.132696   1.345787   2.001073 H        1 UNL1     0.2100
     50 H         2.131256   4.213829   -1.822686 H        1 UNL1     0.2102
@<TRIPOS>BOND
     1     1     2    1
     2     1     6    1
     3     2     3    1
     4     3     4    1
     5     3    29    1
     6     3    33    1
     7     4     5    1
     8     5     6    1
     9     5     7    1
    10     5    35    1
    11     7     8    1
    12     8     9   ar
    13     8    13   ar
    14     9    10   ar
    15     9    36    1
    16    10    11   ar
    17    10    26    1
    18    11    12   ar
    19    11    14    1
    20    12    13   ar
    21    12    17    1
    22    13    37    1
    23    14    15    1
    24    14    25    2
    25    15    16    1
    26    15    38    1
    27    15    39    1
    28    16    17    1
    29    16    18    1
    30    16    40    1
    31    18    19   ar
    32    18    23   ar
    33    19    20   ar
    34    19    41    1
    35    20    21   ar
    36    20    42    1
    37    21    22   ar
    38    21    24    1
    39    22    23   ar
    40    22    43    1
    41    23    44    1
    42    24    45    1
    43    26    46    1
    44    27    47    1
    45    28    48    1
    46    29    49    1
    47    30    50    1
    48     1    31    1
    49     1    27    1
    50     2    32    1
    51     2    28    1
    52     4    34    1
    53     4    30    1
