@<TRIPOS>MOLECULE
*****
 50 53 0 0 0
SMALL
GASTEIGER

@<TRIPOS>ATOM
     1 C         -1.765043   -0.32125   1.245883 C.3        1 UNL1     0.1889
     2 C         -0.651932   0.587455   0.658364 C.3        1 UNL1     0.1342
     3 C         0.210952   1.304565   1.707959 C.3        1 UNL1     0.1174
     4 C         -0.581338   1.703625   2.955414 C.3        1 UNL1     0.1456
     5 C         -1.470683   0.561652   3.480129 C.3        1 UNL1     0.2326
     6 O         -2.360675   0.128008   2.454099 O.3        1 UNL1     -0.3076
     7 O         -0.726823   -0.516295   4.076805 O.3        1 UNL1     -0.4605
     8 C         -0.491511   -1.61209   3.266008 C.ar        1 UNL1     0.1310
     9 C         0.436032   -2.62707   3.524424 C.ar        1 UNL1     0.0226
     10 C         0.589182   -3.707869   2.647884 C.ar        1 UNL1     0.1343
     11 C         -0.19909   -3.812222   1.502643 C.ar        1 UNL1     0.1007
     12 C         -1.099891   -2.783972   1.212741 C.ar        1 UNL1     0.1389
     13 C         -1.251827   -1.696003   2.092894 C.ar        1 UNL1     0.0229
     14 C         -0.138004   -4.974283   0.586108 C.2        1 UNL1     0.1740
     15 C         -1.206725   -5.028452   -0.465772 C.3        1 UNL1     0.0520
     16 C         -1.429343   -3.620035   -0.999399 C.3        1 UNL1     0.1322
     17 O         -1.847729   -2.730685   0.059412 O.3        1 UNL1     -0.4828
     18 C         -0.270974   -3.09308   -1.849824 C.ar        1 UNL1     -0.0067
     19 C         0.567913   -2.086143   -1.329669 C.ar        1 UNL1     -0.0516
     20 C         1.60698   -1.54866   -2.098703 C.ar        1 UNL1     -0.0198
     21 C         1.81239   -2.003406   -3.388989 C.ar        1 UNL1     0.1169
     22 C         1.024099   -3.017548   -3.917149 C.ar        1 UNL1     -0.0198
     23 C         -0.003347   -3.568155   -3.14175 C.ar        1 UNL1     -0.0516
     24 O         2.809938   -1.429767   -4.12127 O.3        1 UNL1     -0.5068
     25 O         0.673264   -5.888509   0.706607 O.2        1 UNL1     -0.2917
     26 O         1.512228   -4.663866   2.957144 O.3        1 UNL1     -0.5058
     27 O         -1.397227   -1.68944   1.320409 O.3        1 UNL1     -0.3648
     28 O         -1.272433   1.602678   -0.152196 O.3        1 UNL1     -0.3841
     29 O         1.377389   0.538161   2.014852 O.3        1 UNL1     -0.3863
     30 O         -1.418933   2.837595   2.641986 O.3        1 UNL1     -0.3829
     31 H         -2.593841   -0.303456   0.529744 H        1 UNL1     0.0937
     32 H         0.0   0.0   0.0 H        1 UNL1     0.0671
     33 H         0.583449   2.234919   1.256953 H        1 UNL1     0.0649
     34 H         0.104693   2.021306   3.74841 H        1 UNL1     0.0683
     35 H         -2.08464   1.038848   4.254222 H        1 UNL1     0.1085
     36 H         1.038974   -2.632542   4.42584 H        1 UNL1     0.0691
     37 H         -1.959192   -0.907911   1.843817 H        1 UNL1     0.0691
     38 H         -2.114725   -5.420723   0.004534 H        1 UNL1     0.0385
     39 H         -0.900567   -5.725887   -1.252938 H        1 UNL1     0.0385
     40 H         -2.291819   -3.663624   -1.678189 H        1 UNL1     0.0789
     41 H         0.421536   -1.705801   -0.32291 H        1 UNL1     0.0623
     42 H         2.239519   -0.764219   -1.690587 H        1 UNL1     0.0654
     43 H         1.185837   -3.391619   -4.921052 H        1 UNL1     0.0654
     44 H         -0.592941   -4.366294   -3.582429 H        1 UNL1     0.0623
     45 H         3.654485   -1.595425   -3.671809 H        1 UNL1     0.2921
     46 H         2.255053   -4.609525   2.335316 H        1 UNL1     0.2922
     47 H         -1.647823   -2.057202   2.179369 H        1 UNL1     0.2126
     48 H         -0.941854   2.46178   0.173986 H        1 UNL1     0.2101
     49 H         1.237552   -0.389483   1.766425 H        1 UNL1     0.2100
     50 H         -1.061678   3.262342   1.834725 H        1 UNL1     0.2102
@<TRIPOS>BOND
     1     1     2    1
     2     1     6    1
     3     2     3    1
     4     3     4    1
     5     3    29    1
     6     3    33    1
     7     4     5    1
     8     5     6    1
     9     5     7    1
    10     5    35    1
    11     7     8    1
    12     8     9   ar
    13     8    13   ar
    14     9    10   ar
    15     9    36    1
    16    10    11   ar
    17    10    26    1
    18    11    12   ar
    19    11    14    1
    20    12    13   ar
    21    12    17    1
    22    13    37    1
    23    14    15    1
    24    14    25    2
    25    15    16    1
    26    15    38    1
    27    15    39    1
    28    16    17    1
    29    16    18    1
    30    16    40    1
    31    18    19   ar
    32    18    23   ar
    33    19    20   ar
    34    19    41    1
    35    20    21   ar
    36    20    42    1
    37    21    22   ar
    38    21    24    1
    39    22    23   ar
    40    22    43    1
    41    23    44    1
    42    24    45    1
    43    26    46    1
    44    27    47    1
    45    28    48    1
    46    29    49    1
    47    30    50    1
    48     1    31    1
    49     1    27    1
    50     2    32    1
    51     2    28    1
    52     4    34    1
    53     4    30    1
