@<TRIPOS>MOLECULE
*****
 50 53 0 0 0
SMALL
GASTEIGER

@<TRIPOS>ATOM
     1 C         -0.327339   -1.367097   1.671736 C.3        1 UNL1     0.1889
     2 C         -0.462603   -0.979315   0.174649 C.3        1 UNL1     0.1342
     3 C         -1.90522   -0.953354   -0.353222 C.3        1 UNL1     0.1174
     4 C         -2.790169   -2.026934   0.285064 C.3        1 UNL1     0.1456
     5 C         -2.6334   -2.087824   1.815449 C.3        1 UNL1     0.2326
     6 O         -1.267512   -2.314966   2.155486 O.3        1 UNL1     -0.3076
     7 O         -3.205164   -0.955735   2.495729 O.3        1 UNL1     -0.4605
     8 C         -3.721211   -1.202532   3.755218 C.ar        1 UNL1     0.1310
     9 C         -4.538859   -2.284729   4.098152 C.ar        1 UNL1     0.0226
     10 C         -4.998445   -2.457672   5.409172 C.ar        1 UNL1     0.1343
     11 C         -4.631638   -1.564797   6.415188 C.ar        1 UNL1     0.1007
     12 C         -3.849218   -0.457616   6.076438 C.ar        1 UNL1     0.1389
     13 C         -3.38941   -0.282497   4.757597 C.ar        1 UNL1     0.0229
     14 C         -5.019464   -1.745786   7.833281 C.2        1 UNL1     0.1740
     15 C         -4.355903   -0.820949   8.810989 C.3        1 UNL1     0.0520
     16 C         -4.284032   0.566795   8.188928 C.3        1 UNL1     0.1322
     17 O         -3.519181   0.540507   6.96362 O.3        1 UNL1     -0.4828
     18 C         -5.64301   1.261501   8.07366 C.ar        1 UNL1     -0.0067
     19 C         -5.768931   2.40593   7.259634 C.ar        1 UNL1     -0.0516
     20 C         -6.985473   3.092821   7.169258 C.ar        1 UNL1     -0.0198
     21 C         -8.079024   2.650629   7.892058 C.ar        1 UNL1     0.1169
     22 C         -7.995297   1.507398   8.676183 C.ar        1 UNL1     -0.0198
     23 C         -6.783924   0.809659   8.752297 C.ar        1 UNL1     -0.0516
     24 O         -9.23671   3.36701   7.808615 O.3        1 UNL1     -0.5068
     25 O         -5.769852   -2.637692   8.220461 O.2        1 UNL1     -0.2917
     26 O         -5.793672   -3.53336   5.677679 O.3        1 UNL1     -0.5058
     27 O         -0.218232   -0.248702   2.537805 O.3        1 UNL1     -0.3648
     28 O         0.264518   -1.940397   -0.612957 O.3        1 UNL1     -0.3841
     29 O         -2.461289   0.358577   -0.244794 O.3        1 UNL1     -0.3863
     30 O         -2.445489   -3.315563   -0.268399 O.3        1 UNL1     -0.3829
     31 H         0.633289   -1.883315   1.775611 H        1 UNL1     0.0937
     32 H         0.0   0.0   0.0 H        1 UNL1     0.0671
     33 H         -1.872035   -1.168064   -1.430496 H        1 UNL1     0.0649
     34 H         -3.841002   -1.841902   0.036238 H        1 UNL1     0.0683
     35 H         -3.187836   -2.990102   2.102457 H        1 UNL1     0.1085
     36 H         -4.813299   -3.043992   3.374052 H        1 UNL1     0.0691
     37 H         -2.782521   0.588396   4.519429 H        1 UNL1     0.0691
     38 H         -3.354403   -1.21562   9.01288 H        1 UNL1     0.0385
     39 H         -4.920846   -0.825299   9.749391 H        1 UNL1     0.0385
     40 H         -3.692823   1.19578   8.868171 H        1 UNL1     0.0789
     41 H         -4.922848   2.778438   6.689518 H        1 UNL1     0.0623
     42 H         -7.06668   3.980922   6.547411 H        1 UNL1     0.0654
     43 H         -8.849615   1.143708   9.234556 H        1 UNL1     0.0654
     44 H         -6.757306   -0.085466   9.366209 H        1 UNL1     0.0623
     45 H         -9.071963   4.257855   8.157858 H        1 UNL1     0.2921
     46 H         -5.405186   -4.050351   6.401011 H        1 UNL1     0.2922
     47 H         0.51137   0.321572   2.257934 H        1 UNL1     0.2126
     48 H         1.209527   -1.820996   -0.397474 H        1 UNL1     0.2101
     49 H         -2.030211   0.953188   -0.879148 H        1 UNL1     0.2100
     50 H         -2.707931   -3.318289   -1.212237 H        1 UNL1     0.2102
@<TRIPOS>BOND
     1     1     2    1
     2     1     6    1
     3     2     3    1
     4     3     4    1
     5     3    29    1
     6     3    33    1
     7     4     5    1
     8     5     6    1
     9     5     7    1
    10     5    35    1
    11     7     8    1
    12     8     9   ar
    13     8    13   ar
    14     9    10   ar
    15     9    36    1
    16    10    11   ar
    17    10    26    1
    18    11    12   ar
    19    11    14    1
    20    12    13   ar
    21    12    17    1
    22    13    37    1
    23    14    15    1
    24    14    25    2
    25    15    16    1
    26    15    38    1
    27    15    39    1
    28    16    17    1
    29    16    18    1
    30    16    40    1
    31    18    19   ar
    32    18    23   ar
    33    19    20   ar
    34    19    41    1
    35    20    21   ar
    36    20    42    1
    37    21    22   ar
    38    21    24    1
    39    22    23   ar
    40    22    43    1
    41    23    44    1
    42    24    45    1
    43    26    46    1
    44    27    47    1
    45    28    48    1
    46    29    49    1
    47    30    50    1
    48     1    31    1
    49     1    27    1
    50     2    32    1
    51     2    28    1
    52     4    34    1
    53     4    30    1
