@<TRIPOS>MOLECULE
*****
 50 53 0 0 0
SMALL
GASTEIGER

@<TRIPOS>ATOM
     1 C         -0.334045   -1.330884   1.699402 C.3        1 UNL1     0.1889
     2 C         -0.463923   -0.975054   0.193926 C.3        1 UNL1     0.1342
     3 C         -1.904716   -0.959397   -0.339307 C.3        1 UNL1     0.1174
     4 C         -2.792631   -2.018514   0.318716 C.3        1 UNL1     0.1456
     5 C         -2.641117   -2.046831   1.850579 C.3        1 UNL1     0.2326
     6 O         -1.276563   -2.267581   2.200054 O.3        1 UNL1     -0.3076
     7 O         -3.214351   -0.900096   2.504585 O.3        1 UNL1     -0.4605
     8 C         -3.724676   -1.117127   3.771863 C.ar        1 UNL1     0.1310
     9 C         -4.542775   -2.189532   4.143295 C.ar        1 UNL1     0.0226
     10 C         -4.99624   -2.331676   5.460135 C.ar        1 UNL1     0.1343
     11 C         -4.622705   -1.416945   6.443791 C.ar        1 UNL1     0.1007
     12 C         -3.839762   -0.319393   6.076145 C.ar        1 UNL1     0.1389
     13 C         -3.38611   -0.175252   4.751436 C.ar        1 UNL1     0.0229
     14 C         -5.003899   -1.56485   7.867508 C.2        1 UNL1     0.1740
     15 C         -4.33369   -0.619432   8.820689 C.3        1 UNL1     0.0520
     16 C         -4.262124   0.753665   8.1669 C.3        1 UNL1     0.1322
     17 O         -3.503373   0.697936   6.938787 O.3        1 UNL1     -0.4828
     18 C         -5.620269   1.448426   8.042504 C.ar        1 UNL1     -0.0067
     19 C         -5.997437   2.01578   6.807973 C.ar        1 UNL1     -0.0516
     20 C         -7.211611   2.69948   6.672694 C.ar        1 UNL1     -0.0198
     21 C         -8.052109   2.828767   7.763875 C.ar        1 UNL1     0.1169
     22 C         -7.723725   2.252143   8.983919 C.ar        1 UNL1     -0.0198
     23 C         -6.518113   1.552519   9.114621 C.ar        1 UNL1     -0.0516
     24 O         -9.208658   3.533938   7.604095 O.3        1 UNL1     -0.5068
     25 O         -5.754143   -2.446149   8.27852 O.2        1 UNL1     -0.2917
     26 O         -5.792273   -3.399311   5.756902 O.3        1 UNL1     -0.5058
     27 O         -0.227053   -0.194332   2.541774 O.3        1 UNL1     -0.3648
     28 O         0.265158   -1.953215   -0.570499 O.3        1 UNL1     -0.3841
     29 O         -2.460174   0.354923   -0.260805 O.3        1 UNL1     -0.3863
     30 O         -2.447027   -3.318894   -0.205938 O.3        1 UNL1     -0.3829
     31 H         0.62584   -1.845412   1.817554 H        1 UNL1     0.0937
     32 H         0.0   0.0   0.0 H        1 UNL1     0.0671
     33 H         -1.868024   -1.197073   -1.411634 H        1 UNL1     0.0649
     34 H         -3.842472   -1.838131   0.062406 H        1 UNL1     0.0683
     35 H         -3.197198   -2.942406   2.15488 H        1 UNL1     0.1085
     36 H         -4.82229   -2.964474   3.437989 H        1 UNL1     0.0691
     37 H         -2.77867   0.688727   4.490574 H        1 UNL1     0.0691
     38 H         -3.331994   -1.011517   9.02661 H        1 UNL1     0.0385
     39 H         -4.89401   -0.601272   9.761694 H        1 UNL1     0.0385
     40 H         -3.666326   1.396678   8.828775 H        1 UNL1     0.0789
     41 H         -5.351004   1.935931   5.938836 H        1 UNL1     0.0623
     42 H         -7.485731   3.142834   5.718594 H        1 UNL1     0.0654
     43 H         -8.381547   2.334425   9.840896 H        1 UNL1     0.0654
     44 H         -6.29844   1.105728   10.079487 H        1 UNL1     0.0623
     45 H         -8.9811   4.441998   7.34649 H        1 UNL1     0.2921
     46 H         -5.389342   -3.913832   6.474068 H        1 UNL1     0.2922
     47 H         0.459383   0.402745   2.21289 H        1 UNL1     0.2126
     48 H         1.198166   -1.8893   -0.289172 H        1 UNL1     0.2101
     49 H         -2.020407   0.937776   -0.900087 H        1 UNL1     0.2100
     50 H         -2.680269   -3.331884   -1.157327 H        1 UNL1     0.2102
@<TRIPOS>BOND
     1     1     2    1
     2     1     6    1
     3     2     3    1
     4     3     4    1
     5     3    29    1
     6     3    33    1
     7     4     5    1
     8     5     6    1
     9     5     7    1
    10     5    35    1
    11     7     8    1
    12     8     9   ar
    13     8    13   ar
    14     9    10   ar
    15     9    36    1
    16    10    11   ar
    17    10    26    1
    18    11    12   ar
    19    11    14    1
    20    12    13   ar
    21    12    17    1
    22    13    37    1
    23    14    15    1
    24    14    25    2
    25    15    16    1
    26    15    38    1
    27    15    39    1
    28    16    17    1
    29    16    18    1
    30    16    40    1
    31    18    19   ar
    32    18    23   ar
    33    19    20   ar
    34    19    41    1
    35    20    21   ar
    36    20    42    1
    37    21    22   ar
    38    21    24    1
    39    22    23   ar
    40    22    43    1
    41    23    44    1
    42    24    45    1
    43    26    46    1
    44    27    47    1
    45    28    48    1
    46    29    49    1
    47    30    50    1
    48     1    31    1
    49     1    27    1
    50     2    32    1
    51     2    28    1
    52     4    34    1
    53     4    30    1
