@<TRIPOS>MOLECULE
*****
 50 53 0 0 0
SMALL
GASTEIGER

@<TRIPOS>ATOM
     1 C         -0.289078   -1.360258   1.684321 C.3        1 UNL1     0.1889
     2 C         -0.451808   -0.981968   0.187539 C.3        1 UNL1     0.1342
     3 C         -1.902989   -0.97044   -0.316848 C.3        1 UNL1     0.1174
     4 C         -2.768768   -2.047425   0.34167 C.3        1 UNL1     0.1456
     5 C         -2.586623   -2.098482   1.869603 C.3        1 UNL1     0.2326
     6 O         -1.213598   -2.312845   2.188539 O.3        1 UNL1     -0.3076
     7 O         -3.156323   -0.967177   2.552913 O.3        1 UNL1     -0.4605
     8 C         -3.639112   -1.208399   3.82659 C.ar        1 UNL1     0.1310
     9 C         -4.440364   -2.293652   4.197427 C.ar        1 UNL1     0.0226
     10 C         -4.865947   -2.460266   5.520689 C.ar        1 UNL1     0.1343
     11 C         -4.480476   -1.55767   6.510928 C.ar        1 UNL1     0.1007
     12 C         -3.71451   -0.447644   6.144975 C.ar        1 UNL1     0.1389
     13 C         -3.288916   -0.278909   4.813875 C.ar        1 UNL1     0.0229
     14 C         -4.8316   -1.731066   7.939493 C.2        1 UNL1     0.1740
     15 C         -4.150401   -0.794687   8.893806 C.3        1 UNL1     0.0520
     16 C         -4.103767   0.58899   8.260387 C.3        1 UNL1     0.1322
     17 O         -3.369492   0.559087   7.016597 O.3        1 UNL1     -0.4828
     18 C         -5.470029   1.273548   8.174164 C.ar        1 UNL1     -0.0067
     19 C         -5.877637   1.855036   6.955993 C.ar        1 UNL1     -0.0516
     20 C         -7.100098   2.529946   6.855747 C.ar        1 UNL1     -0.0198
     21 C         -7.91872   2.636392   7.965862 C.ar        1 UNL1     0.1169
     22 C         -7.560108   2.045414   9.170428 C.ar        1 UNL1     -0.0198
     23 C         -6.346168   1.354572   9.266048 C.ar        1 UNL1     -0.0516
     24 O         -9.084263   3.333621   7.840236 O.3        1 UNL1     -0.5068
     25 O         -5.565846   -2.625259   8.351543 O.2        1 UNL1     -0.2917
     26 O         -5.646685   -3.539395   5.816518 O.3        1 UNL1     -0.5058
     27 O         -0.174884   -0.236191   2.542354 O.3        1 UNL1     -0.3648
     28 O         0.2701   -1.94164   -0.606553 O.3        1 UNL1     -0.3841
     29 O         -2.467752   0.337616   -0.206547 O.3        1 UNL1     -0.3863
     30 O         -2.422791   -3.336357   -0.210277 O.3        1 UNL1     -0.3829
     31 H         0.677235   -1.868231   1.775329 H        1 UNL1     0.0937
     32 H         0.0   0.0   0.0 H        1 UNL1     0.0671
     33 H         -1.88562   -1.190918   -1.393327 H        1 UNL1     0.0649
     34 H         -3.824966   -1.872154   0.10902 H        1 UNL1     0.0683
     35 H         -3.129039   -3.003516   2.170562 H        1 UNL1     0.1085
     36 H         -4.727419   -3.059978   3.485763 H        1 UNL1     0.0691
     37 H         -2.694262   0.594368   4.554514 H        1 UNL1     0.0691
     38 H         -3.141444   -1.18104   9.073427 H        1 UNL1     0.0385
     39 H         -4.691763   -0.796124   9.846016 H        1 UNL1     0.0385
     40 H         -3.500254   1.226884   8.920223 H        1 UNL1     0.0789
     41 H         -5.248818   1.793176   6.072585 H        1 UNL1     0.0623
     42 H         -7.397789   2.984374   5.914001 H        1 UNL1     0.0654
     43 H         -8.200587   2.10978   10.041952 H        1 UNL1     0.0654
     44 H         -6.102657   0.896078   10.219636 H        1 UNL1     0.0623
     45 H         -8.869836   4.24702   7.590355 H        1 UNL1     0.2921
     46 H         -5.224822   -4.061606   6.517046 H        1 UNL1     0.2922
     47 H         0.558749   0.327548   2.259791 H        1 UNL1     0.2126
     48 H         1.207838   -1.874556   -0.342205 H        1 UNL1     0.2101
     49 H         -2.045661   0.934231   -0.845049 H        1 UNL1     0.2100
     50 H         -2.674769   -3.336426   -1.156965 H        1 UNL1     0.2102
@<TRIPOS>BOND
     1     1     2    1
     2     1     6    1
     3     2     3    1
     4     3     4    1
     5     3    29    1
     6     3    33    1
     7     4     5    1
     8     5     6    1
     9     5     7    1
    10     5    35    1
    11     7     8    1
    12     8     9   ar
    13     8    13   ar
    14     9    10   ar
    15     9    36    1
    16    10    11   ar
    17    10    26    1
    18    11    12   ar
    19    11    14    1
    20    12    13   ar
    21    12    17    1
    22    13    37    1
    23    14    15    1
    24    14    25    2
    25    15    16    1
    26    15    38    1
    27    15    39    1
    28    16    17    1
    29    16    18    1
    30    16    40    1
    31    18    19   ar
    32    18    23   ar
    33    19    20   ar
    34    19    41    1
    35    20    21   ar
    36    20    42    1
    37    21    22   ar
    38    21    24    1
    39    22    23   ar
    40    22    43    1
    41    23    44    1
    42    24    45    1
    43    26    46    1
    44    27    47    1
    45    28    48    1
    46    29    49    1
    47    30    50    1
    48     1    31    1
    49     1    27    1
    50     2    32    1
    51     2    28    1
    52     4    34    1
    53     4    30    1
