@<TRIPOS>MOLECULE
*****
 50 53 0 0 0
SMALL
GASTEIGER

@<TRIPOS>ATOM
     1 C         1.496595   1.585452   0.131721 C.3        1 UNL1     0.1889
     2 C         0.998763   0.21455   -0.400004 C.3        1 UNL1     0.1342
     3 C         1.927701   -0.969231   -0.089839 C.3        1 UNL1     0.1174
     4 C         3.4089   -0.583846   -0.115286 C.3        1 UNL1     0.1456
     5 C         3.693688   0.71693   0.657527 C.3        1 UNL1     0.2326
     6 O         2.903292   1.77934   0.128918 O.3        1 UNL1     -0.3076
     7 O         3.569353   0.574935   2.084306 O.3        1 UNL1     -0.4605
     8 C         2.319367   0.841603   2.61341 C.ar        1 UNL1     0.1310
     9 C         2.03649   1.02515   3.9712 C.ar        1 UNL1     0.0226
     10 C         0.736975   1.308911   4.407825 C.ar        1 UNL1     0.1343
     11 C         -0.307871   1.439681   3.494021 C.ar        1 UNL1     0.1007
     12 C         -0.045579   1.218075   2.139445 C.ar        1 UNL1     0.1389
     13 C         1.260655   0.930157   1.700938 C.ar        1 UNL1     0.0229
     14 C         -1.682802   1.8209   3.892003 C.2        1 UNL1     0.1740
     15 C         -2.622086   2.133314   2.764309 C.3        1 UNL1     0.0520
     16 C         -2.379657   1.131521   1.643775 C.3        1 UNL1     0.1322
     17 O         -1.01849   1.214926   1.166974 O.3        1 UNL1     -0.4828
     18 C         -2.850697   -0.287099   1.972959 C.ar        1 UNL1     -0.0067
     19 C         -3.549947   -0.523334   3.174398 C.ar        1 UNL1     -0.0516
     20 C         -3.953328   -1.81636   3.528417 C.ar        1 UNL1     -0.0198
     21 C         -3.657721   -2.880216   2.694957 C.ar        1 UNL1     0.1169
     22 C         -2.999892   -2.674665   1.4892 C.ar        1 UNL1     -0.0198
     23 C         -2.612641   -1.379178   1.126149 C.ar        1 UNL1     -0.0516
     24 O         -4.033191   -4.130279   3.090892 O.3        1 UNL1     -0.5068
     25 O         -2.03483   1.958352   5.060621 O.2        1 UNL1     -0.2917
     26 O         0.527628   1.475667   5.745716 O.3        1 UNL1     -0.5058
     27 O         0.919711   1.953053   1.374645 O.3        1 UNL1     -0.3648
     28 O         0.875139   0.298334   -1.831926 O.3        1 UNL1     -0.3841
     29 O         1.543335   -1.60973   1.12842 O.3        1 UNL1     -0.3863
     30 O         3.829963   -0.411035   -1.485882 O.3        1 UNL1     -0.3829
     31 H         1.132163   2.344039   -0.569572 H        1 UNL1     0.0937
     32 H         0.0   -0.0   0.0 H        1 UNL1     0.0671
     33 H         1.782245   -1.724312   -0.87496 H        1 UNL1     0.0649
     34 H         4.013566   -1.394582   0.306005 H        1 UNL1     0.0683
     35 H         4.738927   0.945575   0.414475 H        1 UNL1     0.1085
     36 H         2.815023   0.991741   4.725448 H        1 UNL1     0.0691
     37 H         1.438386   0.760759   0.641123 H        1 UNL1     0.0691
     38 H         -2.412419   3.155713   2.432244 H        1 UNL1     0.0385
     39 H         -3.652184   2.098572   3.135079 H        1 UNL1     0.0385
     40 H         -2.990343   1.4492   0.787819 H        1 UNL1     0.0789
     41 H         -3.78604   0.29361   3.850056 H        1 UNL1     0.0623
     42 H         -4.481451   -1.987311   4.463229 H        1 UNL1     0.0654
     43 H         -2.776643   -3.498561   0.821919 H        1 UNL1     0.0654
     44 H         -2.109888   -1.253784   0.17202 H        1 UNL1     0.0623
     45 H         -3.313352   -4.514436   3.617173 H        1 UNL1     0.2921
     46 H         -0.339939   1.113114   5.985079 H        1 UNL1     0.2922
     47 H         0.604359   2.866958   1.340158 H        1 UNL1     0.2126
     48 H         0.96323   -0.612133   -2.174012 H        1 UNL1     0.2101
     49 H         1.103348   -0.9715   1.712259 H        1 UNL1     0.2100
     50 H         3.624874   -1.237202   -1.970751 H        1 UNL1     0.2102
@<TRIPOS>BOND
     1     1     2    1
     2     1     6    1
     3     2     3    1
     4     3     4    1
     5     3    29    1
     6     3    33    1
     7     4     5    1
     8     5     6    1
     9     5     7    1
    10     5    35    1
    11     7     8    1
    12     8     9   ar
    13     8    13   ar
    14     9    10   ar
    15     9    36    1
    16    10    11   ar
    17    10    26    1
    18    11    12   ar
    19    11    14    1
    20    12    13   ar
    21    12    17    1
    22    13    37    1
    23    14    15    1
    24    14    25    2
    25    15    16    1
    26    15    38    1
    27    15    39    1
    28    16    17    1
    29    16    18    1
    30    16    40    1
    31    18    19   ar
    32    18    23   ar
    33    19    20   ar
    34    19    41    1
    35    20    21   ar
    36    20    42    1
    37    21    22   ar
    38    21    24    1
    39    22    23   ar
    40    22    43    1
    41    23    44    1
    42    24    45    1
    43    26    46    1
    44    27    47    1
    45    28    48    1
    46    29    49    1
    47    30    50    1
    48     1    31    1
    49     1    27    1
    50     2    32    1
    51     2    28    1
    52     4    34    1
    53     4    30    1
