@<TRIPOS>MOLECULE
*****
 50 53 0 0 0
SMALL
GASTEIGER

@<TRIPOS>ATOM
     1 C         -0.323092   -1.362479   1.676325 C.3        1 UNL1     0.1889
     2 C         -0.46442   -0.977662   0.179034 C.3        1 UNL1     0.1342
     3 C         -1.909455   -0.94895   -0.342039 C.3        1 UNL1     0.1174
     4 C         -2.794266   -2.018696   0.302842 C.3        1 UNL1     0.1456
     5 C         -2.630388   -2.076608   1.832598 C.3        1 UNL1     0.2326
     6 O         -1.26352   -2.306709   2.166653 O.3        1 UNL1     -0.3076
     7 O         -3.195842   -0.941457   2.51305 O.3        1 UNL1     -0.4605
     8 C         -4.110751   -1.226598   3.51063 C.ar        1 UNL1     0.1310
     9 C         -5.161322   -2.144822   3.408332 C.ar        1 UNL1     0.0226
     10 C         -6.027184   -2.376672   4.483706 C.ar        1 UNL1     0.1343
     11 C         -5.848769   -1.712704   5.696618 C.ar        1 UNL1     0.1007
     12 C         -4.828349   -0.76331   5.797497 C.ar        1 UNL1     0.1389
     13 C         -3.959492   -0.528433   4.715207 C.ar        1 UNL1     0.0229
     14 C         -6.682029   -1.980751   6.8916 C.2        1 UNL1     0.1740
     15 C         -6.211748   -1.345177   8.166916 C.3        1 UNL1     0.0520
     16 C         -5.722201   0.061669   7.852135 C.3        1 UNL1     0.1322
     17 O         -4.63008   0.02513   6.907145 O.3        1 UNL1     -0.4828
     18 C         -6.843887   1.0373   7.48787 C.ar        1 UNL1     -0.0067
     19 C         -6.707481   1.854646   6.347014 C.ar        1 UNL1     -0.0516
     20 C         -7.692944   2.790985   6.01221 C.ar        1 UNL1     -0.0198
     21 C         -8.813483   2.924451   6.812464 C.ar        1 UNL1     0.1169
     22 C         -8.992093   2.110652   7.923621 C.ar        1 UNL1     -0.0198
     23 C         -8.015536   1.161447   8.248278 C.ar        1 UNL1     -0.0516
     24 O         -9.733936   3.873171   6.476163 O.3        1 UNL1     -0.5068
     25 O         -7.651958   -2.734189   6.884353 O.2        1 UNL1     -0.2917
     26 O         -7.032582   -3.284164   4.318729 O.3        1 UNL1     -0.5058
     27 O         -0.206838   -0.242462   2.539363 O.3        1 UNL1     -0.3648
     28 O         0.256341   -1.942468   -0.609864 O.3        1 UNL1     -0.3841
     29 O         -2.461444   0.364727   -0.233907 O.3        1 UNL1     -0.3863
     30 O         -2.455714   -3.309485   -0.249367 O.3        1 UNL1     -0.3829
     31 H         0.636617   -1.881077   1.776793 H        1 UNL1     0.0937
     32 H         0.0   0.0   0.0 H        1 UNL1     0.0671
     33 H         -1.881974   -1.166145   -1.418975 H        1 UNL1     0.0649
     34 H         -3.845764   -1.83136   0.058594 H        1 UNL1     0.0683
     35 H         -3.185897   -2.976734   2.124253 H        1 UNL1     0.1085
     36 H         -5.318748   -2.73356   2.511267 H        1 UNL1     0.0691
     37 H         -3.173633   0.216673   4.81882 H        1 UNL1     0.0691
     38 H         -5.402067   -1.964863   8.566833 H        1 UNL1     0.0385
     39 H         -7.032702   -1.34534   8.892045 H        1 UNL1     0.0385
     40 H         -5.27582   0.46252   8.772234 H        1 UNL1     0.0789
     41 H         -5.832953   1.775513   5.707804 H        1 UNL1     0.0623
     42 H         -7.570574   3.42372   5.136605 H        1 UNL1     0.0654
     43 H         -9.872915   2.196404   8.548687 H        1 UNL1     0.0654
     44 H         -8.192745   0.53519   9.117326 H        1 UNL1     0.0623
     45 H         -9.308228   4.744436   6.525006 H        1 UNL1     0.2921
     46 H         -6.965576   -3.969133   5.002644 H        1 UNL1     0.2922
     47 H         0.522968   0.325201   2.254756 H        1 UNL1     0.2126
     48 H         1.196449   -1.863999   -0.357334 H        1 UNL1     0.2101
     49 H         -2.031535   0.956833   -0.871389 H        1 UNL1     0.2100
     50 H         -2.701909   -3.305749   -1.197569 H        1 UNL1     0.2102
@<TRIPOS>BOND
     1     1     2    1
     2     1     6    1
     3     2     3    1
     4     3     4    1
     5     3    29    1
     6     3    33    1
     7     4     5    1
     8     5     6    1
     9     5     7    1
    10     5    35    1
    11     7     8    1
    12     8     9   ar
    13     8    13   ar
    14     9    10   ar
    15     9    36    1
    16    10    11   ar
    17    10    26    1
    18    11    12   ar
    19    11    14    1
    20    12    13   ar
    21    12    17    1
    22    13    37    1
    23    14    15    1
    24    14    25    2
    25    15    16    1
    26    15    38    1
    27    15    39    1
    28    16    17    1
    29    16    18    1
    30    16    40    1
    31    18    19   ar
    32    18    23   ar
    33    19    20   ar
    34    19    41    1
    35    20    21   ar
    36    20    42    1
    37    21    22   ar
    38    21    24    1
    39    22    23   ar
    40    22    43    1
    41    23    44    1
    42    24    45    1
    43    26    46    1
    44    27    47    1
    45    28    48    1
    46    29    49    1
    47    30    50    1
    48     1    31    1
    49     1    27    1
    50     2    32    1
    51     2    28    1
    52     4    34    1
    53     4    30    1
