@<TRIPOS>MOLECULE
*****
 50 53 0 0 0
SMALL
GASTEIGER

@<TRIPOS>ATOM
     1 C         0.254077   -1.75584   1.274078 C.3        1 UNL1     0.1889
     2 C         -0.327428   -1.046849   0.021431 C.3        1 UNL1     0.1342
     3 C         -1.859025   -1.095219   -0.08964 C.3        1 UNL1     0.1174
     4 C         -2.452024   -2.400637   0.446413 C.3        1 UNL1     0.1456
     5 C         -1.86224   -2.800169   1.811291 C.3        1 UNL1     0.2326
     6 O         -0.444111   -2.911342   1.714242 O.3        1 UNL1     -0.3076
     7 O         -2.290668   -1.951153   2.891542 O.3        1 UNL1     -0.4605
     8 C         -2.397686   -2.55511   4.131425 C.ar        1 UNL1     0.1310
     9 C         -3.005708   -3.790054   4.38147 C.ar        1 UNL1     0.0226
     10 C         -3.048654   -4.327191   5.673578 C.ar        1 UNL1     0.1343
     11 C         -2.463043   -3.652816   6.744148 C.ar        1 UNL1     0.1007
     12 C         -1.889047   -2.39969   6.51396 C.ar        1 UNL1     0.1389
     13 C         -1.848325   -1.858596   5.215118 C.ar        1 UNL1     0.0229
     14 C         -2.405645   -4.212832   8.114272 C.2        1 UNL1     0.1740
     15 C         -1.547375   -3.459964   9.087982 C.3        1 UNL1     0.0520
     16 C         -1.75265   -1.968936   8.858517 C.3        1 UNL1     0.1322
     17 O         -1.380267   -1.6013   7.511949 O.3        1 UNL1     -0.4828
     18 C         -3.128548   -1.461698   9.297081 C.ar        1 UNL1     -0.0067
     19 C         -3.882031   -0.656252   8.418598 C.ar        1 UNL1     -0.0516
     20 C         -5.122919   -0.136758   8.806264 C.ar        1 UNL1     -0.0198
     21 C         -5.616801   -0.408754   10.069564 C.ar        1 UNL1     0.1169
     22 C         -4.91354   -1.22617   10.944832 C.ar        1 UNL1     -0.0198
     23 C         -3.681174   -1.760923   10.550661 C.ar        1 UNL1     -0.0516
     24 O         -6.811095   0.145567   10.42564 O.3        1 UNL1     -0.5068
     25 O         -2.949113   -5.265712   8.437649 O.2        1 UNL1     -0.2917
     26 O         -3.65752   -5.535334   5.850374 O.3        1 UNL1     -0.5058
     27 O         0.530573   -0.870375   2.347525 O.3        1 UNL1     -0.3648
     28 O         0.207612   -1.68461   -1.153175 O.3        1 UNL1     -0.3841
     29 O         -2.447268   0.064384   0.50317 O.3        1 UNL1     -0.3863
     30 O         -2.194213   -3.461476   -0.499021 O.3        1 UNL1     -0.3829
     31 H         1.236662   -2.144821   0.985463 H        1 UNL1     0.0937
     32 H         0.0   0.0   0.0 H        1 UNL1     0.0671
     33 H         -2.119773   -1.041961   -1.155892 H        1 UNL1     0.0649
     34 H         -3.540094   -2.308246   0.535677 H        1 UNL1     0.0683
     35 H         -2.250619   -3.812173   1.981259 H        1 UNL1     0.1085
     36 H         -3.429459   -4.389091   3.582903 H        1 UNL1     0.0691
     37 H         -1.396698   -0.880715   5.062558 H        1 UNL1     0.0691
     38 H         -0.506895   -3.748295   8.904154 H        1 UNL1     0.0385
     39 H         -1.811091   -3.762193   10.107242 H        1 UNL1     0.0385
     40 H         -1.031287   -1.440874   9.496723 H        1 UNL1     0.0789
     41 H         -3.512068   -0.420684   7.424975 H        1 UNL1     0.0623
     42 H         -5.688954   0.492814   8.124168 H        1 UNL1     0.0654
     43 H         -5.298056   -1.457892   11.930916 H        1 UNL1     0.0654
     44 H         -3.163797   -2.404119   11.255973 H        1 UNL1     0.0623
     45 H         -6.724726   1.111836   10.385882 H        1 UNL1     0.2921
     46 H         -3.033235   -6.155498   6.259123 H        1 UNL1     0.2922
     47 H         1.12731   -0.166939   2.056076 H        1 UNL1     0.2126
     48 H         1.176441   -1.566644   -1.118727 H        1 UNL1     0.2101
     49 H         -2.247822   0.847185   -0.034639 H        1 UNL1     0.2100
     50 H         -2.691555   -3.261929   -1.31911 H        1 UNL1     0.2102
@<TRIPOS>BOND
     1     1     2    1
     2     1     6    1
     3     2     3    1
     4     3     4    1
     5     3    29    1
     6     3    33    1
     7     4     5    1
     8     5     6    1
     9     5     7    1
    10     5    35    1
    11     7     8    1
    12     8     9   ar
    13     8    13   ar
    14     9    10   ar
    15     9    36    1
    16    10    11   ar
    17    10    26    1
    18    11    12   ar
    19    11    14    1
    20    12    13   ar
    21    12    17    1
    22    13    37    1
    23    14    15    1
    24    14    25    2
    25    15    16    1
    26    15    38    1
    27    15    39    1
    28    16    17    1
    29    16    18    1
    30    16    40    1
    31    18    19   ar
    32    18    23   ar
    33    19    20   ar
    34    19    41    1
    35    20    21   ar
    36    20    42    1
    37    21    22   ar
    38    21    24    1
    39    22    23   ar
    40    22    43    1
    41    23    44    1
    42    24    45    1
    43    26    46    1
    44    27    47    1
    45    28    48    1
    46    29    49    1
    47    30    50    1
    48     1    31    1
    49     1    27    1
    50     2    32    1
    51     2    28    1
    52     4    34    1
    53     4    30    1
