@<TRIPOS>MOLECULE
*****
 50 53 0 0 0
SMALL
GASTEIGER

@<TRIPOS>ATOM
     1 C         -0.321822   -1.336419   1.697415 C.3        1 UNL1     0.1889
     2 C         -0.460164   -0.976904   0.19357 C.3        1 UNL1     0.1342
     3 C         -1.903615   -0.963954   -0.332497 C.3        1 UNL1     0.1174
     4 C         -2.785228   -2.027393   0.327029 C.3        1 UNL1     0.1456
     5 C         -2.626058   -2.059407   1.858043 C.3        1 UNL1     0.2326
     6 O         -1.259166   -2.277171   2.200174 O.3        1 UNL1     -0.3076
     7 O         -3.199331   -0.916094   2.517979 O.3        1 UNL1     -0.4605
     8 C         -3.702332   -1.137905   3.787356 C.ar        1 UNL1     0.1310
     9 C         -4.515207   -2.213744   4.160327 C.ar        1 UNL1     0.0226
     10 C         -4.961316   -2.360621   5.479158 C.ar        1 UNL1     0.1343
     11 C         -4.585402   -1.44726   6.463181 C.ar        1 UNL1     0.1007
     12 C         -3.807739   -0.346392   6.094246 C.ar        1 UNL1     0.1389
     13 C         -3.36149   -0.197497   4.767549 C.ar        1 UNL1     0.0229
     14 C         -4.958662   -1.599949   7.888494 C.2        1 UNL1     0.1740
     15 C         -4.286332   -0.654919   8.840565 C.3        1 UNL1     0.0520
     16 C         -4.222373   0.720049   8.189927 C.3        1 UNL1     0.1322
     17 O         -3.469917   0.669761   6.957714 O.3        1 UNL1     -0.4828
     18 C         -5.583257   1.410977   8.074433 C.ar        1 UNL1     -0.0067
     19 C         -5.969414   1.978681   6.842846 C.ar        1 UNL1     -0.0516
     20 C         -7.186362   2.658981   6.715602 C.ar        1 UNL1     -0.0198
     21 C         -8.020733   2.784518   7.81191 C.ar        1 UNL1     0.1169
     22 C         -7.68342   2.207417   9.02929 C.ar        1 UNL1     -0.0198
     23 C         -6.475014   1.511173   9.151989 C.ar        1 UNL1     -0.0516
     24 O         -9.180267   3.486486   7.659849 O.3        1 UNL1     -0.5068
     25 O         -5.704055   -2.484577   8.301177 O.2        1 UNL1     -0.2917
     26 O         -5.752531   -3.431432   5.777362 O.3        1 UNL1     -0.5058
     27 O         -0.21392   -0.201841   2.542328 O.3        1 UNL1     -0.3648
     28 O         0.267925   -1.950898   -0.577097 O.3        1 UNL1     -0.3841
     29 O         -2.46244   0.348546   -0.247687 O.3        1 UNL1     -0.3863
     30 O         -2.438502   -3.325352   -0.20285 O.3        1 UNL1     -0.3829
     31 H         0.640105   -1.848501   1.809429 H        1 UNL1     0.0937
     32 H         0.0   0.0   0.0 H        1 UNL1     0.0671
     33 H         -1.871549   -1.19863   -1.405632 H        1 UNL1     0.0649
     34 H         -3.836837   -1.849339   0.076398 H        1 UNL1     0.0683
     35 H         -3.17806   -2.957395   2.162657 H        1 UNL1     0.1085
     36 H         -4.796066   -2.987738   3.454514 H        1 UNL1     0.0691
     37 H         -2.758057   0.668994   4.505718 H        1 UNL1     0.0691
     38 H         -3.282382   -1.044467   9.040225 H        1 UNL1     0.0385
     39 H         -4.841755   -0.640862   9.784538 H        1 UNL1     0.0385
     40 H         -3.625064   1.363192   8.850313 H        1 UNL1     0.0789
     41 H         -5.327927   1.901752   5.969789 H        1 UNL1     0.0623
     42 H         -7.467443   3.102657   5.763679 H        1 UNL1     0.0654
     43 H         -8.336374   2.28676   9.890258 H        1 UNL1     0.0654
     44 H         -6.248305   1.063888   10.114997 H        1 UNL1     0.0623
     45 H         -8.956899   4.395513   7.401985 H        1 UNL1     0.2921
     46 H         -5.344277   -3.946544   6.491085 H        1 UNL1     0.2922
     47 H         0.526937   0.354157   2.2633 H        1 UNL1     0.2126
     48 H         1.202126   -1.885058   -0.300209 H        1 UNL1     0.2101
     49 H         -2.027512   0.934384   -0.887551 H        1 UNL1     0.2100
     50 H         -2.676409   -3.336447   -1.153108 H        1 UNL1     0.2102
@<TRIPOS>BOND
     1     1     2    1
     2     1     6    1
     3     2     3    1
     4     3     4    1
     5     3    29    1
     6     3    33    1
     7     4     5    1
     8     5     6    1
     9     5     7    1
    10     5    35    1
    11     7     8    1
    12     8     9   ar
    13     8    13   ar
    14     9    10   ar
    15     9    36    1
    16    10    11   ar
    17    10    26    1
    18    11    12   ar
    19    11    14    1
    20    12    13   ar
    21    12    17    1
    22    13    37    1
    23    14    15    1
    24    14    25    2
    25    15    16    1
    26    15    38    1
    27    15    39    1
    28    16    17    1
    29    16    18    1
    30    16    40    1
    31    18    19   ar
    32    18    23   ar
    33    19    20   ar
    34    19    41    1
    35    20    21   ar
    36    20    42    1
    37    21    22   ar
    38    21    24    1
    39    22    23   ar
    40    22    43    1
    41    23    44    1
    42    24    45    1
    43    26    46    1
    44    27    47    1
    45    28    48    1
    46    29    49    1
    47    30    50    1
    48     1    31    1
    49     1    27    1
    50     2    32    1
    51     2    28    1
    52     4    34    1
    53     4    30    1
