@<TRIPOS>MOLECULE
*****
 50 53 0 0 0
SMALL
GASTEIGER

@<TRIPOS>ATOM
     1 C         -0.32295   -1.318363   1.711264 C.3        1 UNL1     0.1889
     2 C         -0.465873   -0.971898   0.204786 C.3        1 UNL1     0.1342
     3 C         -1.911645   -0.95398   -0.314722 C.3        1 UNL1     0.1174
     4 C         -2.797363   -2.005201   0.358743 C.3        1 UNL1     0.1456
     5 C         -2.631264   -2.024076   1.88924 C.3        1 UNL1     0.2326
     6 O         -1.264298   -2.247982   2.227084 O.3        1 UNL1     -0.3076
     7 O         -3.193677   -0.870794   2.541124 O.3        1 UNL1     -0.4605
     8 C         -3.692237   -1.077363   3.814818 C.ar        1 UNL1     0.1310
     9 C         -4.510642   -2.144114   4.201542 C.ar        1 UNL1     0.0226
     10 C         -4.951572   -2.275683   5.523727 C.ar        1 UNL1     0.1343
     11 C         -4.564877   -1.355808   6.49745 C.ar        1 UNL1     0.1007
     12 C         -3.781494   -0.263751   6.11469 C.ar        1 UNL1     0.1389
     13 C         -3.340447   -0.130238   4.784621 C.ar        1 UNL1     0.0229
     14 C         -4.932503   -1.492697   7.925829 C.2        1 UNL1     0.1740
     15 C         -4.249336   -0.543476   8.865942 C.3        1 UNL1     0.0520
     16 C         -4.179089   0.82492   8.202227 C.3        1 UNL1     0.1322
     17 O         -3.432755   0.758049   6.967082 O.3        1 UNL1     -0.4828
     18 C         -5.535778   1.524021   8.08657 C.ar        1 UNL1     -0.0067
     19 C         -5.923872   2.082781   6.851505 C.ar        1 UNL1     -0.0516
     20 C         -7.136758   2.770162   6.723528 C.ar        1 UNL1     -0.0198
     21 C         -7.965079   2.911672   7.822476 C.ar        1 UNL1     0.1169
     22 C         -7.625958   2.343717   9.043649 C.ar        1 UNL1     -0.0198
     23 C         -6.421743   1.640409   9.167271 C.ar        1 UNL1     -0.0516
     24 O         -9.120522   3.620094   7.669213 O.3        1 UNL1     -0.5068
     25 O         -5.681946   -2.368342   8.350171 O.2        1 UNL1     -0.2917
     26 O         -5.748634   -3.33825   5.835542 O.3        1 UNL1     -0.5058
     27 O         -0.203407   -0.176748   2.545058 O.3        1 UNL1     -0.3648
     28 O         0.251983   -1.957959   -0.560114 O.3        1 UNL1     -0.3841
     29 O         -2.461149   0.363036   -0.239577 O.3        1 UNL1     -0.3863
     30 O         -2.46193   -3.310364   -0.160605 O.3        1 UNL1     -0.3829
     31 H         0.635993   -1.835939   1.823613 H        1 UNL1     0.0937
     32 H         0.0   0.0   0.0 H        1 UNL1     0.0671
     33 H         -1.886184   -1.198829   -1.385759 H        1 UNL1     0.0649
     34 H         -3.848899   -1.822307   0.111312 H        1 UNL1     0.0683
     35 H         -3.187917   -2.915405   2.204751 H        1 UNL1     0.1085
     36 H         -4.80004   -2.922696   3.504277 H        1 UNL1     0.0691
     37 H         -2.732378   0.729641   4.511946 H        1 UNL1     0.0691
     38 H         -3.247131   -0.937998   9.064597 H        1 UNL1     0.0385
     39 H         -4.800236   -0.516858   9.812292 H        1 UNL1     0.0385
     40 H         -3.574351   1.470076   8.85383 H        1 UNL1     0.0789
     41 H         -5.287046   1.993287   5.976237 H        1 UNL1     0.0623
     42 H         -7.419304   3.206805   5.768792 H        1 UNL1     0.0654
     43 H         -8.274291   2.43559   9.90686 H        1 UNL1     0.0654
     44 H         -6.19354   1.200633   10.133379 H        1 UNL1     0.0623
     45 H         -9.868398   3.034006   7.868961 H        1 UNL1     0.2921
     46 H         -5.339921   -3.850221   6.55126 H        1 UNL1     0.2922
     47 H         0.540001   0.371473   2.257555 H        1 UNL1     0.2126
     48 H         1.187715   -1.896658   -0.287387 H        1 UNL1     0.2101
     49 H         -2.025189   0.939943   -0.886811 H        1 UNL1     0.2100
     50 H         -2.704343   -3.328662   -1.109612 H        1 UNL1     0.2102
@<TRIPOS>BOND
     1     1     2    1
     2     1     6    1
     3     2     3    1
     4     3     4    1
     5     3    29    1
     6     3    33    1
     7     4     5    1
     8     5     6    1
     9     5     7    1
    10     5    35    1
    11     7     8    1
    12     8     9   ar
    13     8    13   ar
    14     9    10   ar
    15     9    36    1
    16    10    11   ar
    17    10    26    1
    18    11    12   ar
    19    11    14    1
    20    12    13   ar
    21    12    17    1
    22    13    37    1
    23    14    15    1
    24    14    25    2
    25    15    16    1
    26    15    38    1
    27    15    39    1
    28    16    17    1
    29    16    18    1
    30    16    40    1
    31    18    19   ar
    32    18    23   ar
    33    19    20   ar
    34    19    41    1
    35    20    21   ar
    36    20    42    1
    37    21    22   ar
    38    21    24    1
    39    22    23   ar
    40    22    43    1
    41    23    44    1
    42    24    45    1
    43    26    46    1
    44    27    47    1
    45    28    48    1
    46    29    49    1
    47    30    50    1
    48     1    31    1
    49     1    27    1
    50     2    32    1
    51     2    28    1
    52     4    34    1
    53     4    30    1
