@<TRIPOS>MOLECULE
*****
 50 53 0 0 0
SMALL
GASTEIGER

@<TRIPOS>ATOM
     1 C         -0.335125   -1.330233   1.699698 C.3        1 UNL1     0.1889
     2 C         -0.464085   -0.974959   0.194012 C.3        1 UNL1     0.1342
     3 C         -1.904557   -0.959434   -0.34009 C.3        1 UNL1     0.1174
     4 C         -2.792916   -2.018265   0.317796 C.3        1 UNL1     0.1456
     5 C         -2.642321   -2.046017   1.849761 C.3        1 UNL1     0.2326
     6 O         -1.277988   -2.2667   2.200135 O.3        1 UNL1     -0.3076
     7 O         -3.215893   -0.899011   2.502994 O.3        1 UNL1     -0.4605
     8 C         -3.726988   -1.115545   3.770047 C.ar        1 UNL1     0.1310
     9 C         -4.54536   -2.187773   4.14139 C.ar        1 UNL1     0.0226
     10 C         -4.99962   -2.329404   5.458011 C.ar        1 UNL1     0.1343
     11 C         -4.626632   -1.414323   6.441549 C.ar        1 UNL1     0.1007
     12 C         -3.843417   -0.316945   6.073963 C.ar        1 UNL1     0.1389
     13 C         -3.388965   -0.17332   4.749472 C.ar        1 UNL1     0.0229
     14 C         -5.008685   -1.561679   7.865092 C.2        1 UNL1     0.1740
     15 C         -4.339003   -0.615937   8.818322 C.3        1 UNL1     0.0520
     16 C         -4.266981   0.756913   8.164063 C.3        1 UNL1     0.1322
     17 O         -3.507497   0.70069   6.936426 O.3        1 UNL1     -0.4828
     18 C         -5.625018   1.451691   8.038594 C.ar        1 UNL1     -0.0067
     19 C         -6.001026   2.019418   6.80388 C.ar        1 UNL1     -0.0516
     20 C         -7.215082   2.70314   6.667662 C.ar        1 UNL1     -0.0198
     21 C         -8.056615   2.83208   7.758085 C.ar        1 UNL1     0.1169
     22 C         -7.729378   2.255085   8.978262 C.ar        1 UNL1     -0.0198
     23 C         -6.523879   1.555441   9.109891 C.ar        1 UNL1     -0.0516
     24 O         -9.213024   3.537281   7.597426 O.3        1 UNL1     -0.5068
     25 O         -5.759216   -2.44279   8.275984 O.2        1 UNL1     -0.2917
     26 O         -5.795881   -3.396891   5.7547 O.3        1 UNL1     -0.5058
     27 O         -0.228585   -0.193373   2.54171 O.3        1 UNL1     -0.3648
     28 O         0.265408   -1.95344   -0.569611 O.3        1 UNL1     -0.3841
     29 O         -2.460001   0.35494   -0.262411 O.3        1 UNL1     -0.3863
     30 O         -2.447059   -3.318856   -0.206165 O.3        1 UNL1     -0.3829
     31 H         0.624664   -1.844763   1.818618 H        1 UNL1     0.0937
     32 H         0.0   0.0   0.0 H        1 UNL1     0.0671
     33 H         -1.867234   -1.197513   -1.412306 H        1 UNL1     0.0649
     34 H         -3.842595   -1.837928   0.06079 H        1 UNL1     0.0683
     35 H         -3.198626   -2.941452   2.154063 H        1 UNL1     0.1085
     36 H         -4.824488   -2.962965   3.436206 H        1 UNL1     0.0691
     37 H         -2.781328   0.690533   4.488651 H        1 UNL1     0.0691
     38 H         -3.337449   -1.007991   9.024989 H        1 UNL1     0.0385
     39 H         -4.899886   -0.597399   9.758984 H        1 UNL1     0.0385
     40 H         -3.671549   1.400145   8.826055 H        1 UNL1     0.0789
     41 H         -5.353769   1.939846   5.935332 H        1 UNL1     0.0623
     42 H         -7.488305   3.146783   5.713438 H        1 UNL1     0.0654
     43 H         -8.388013   2.337094   9.834642 H        1 UNL1     0.0654
     44 H         -6.305113   1.108357   10.074828 H        1 UNL1     0.0623
     45 H         -8.985087   4.446912   7.345767 H        1 UNL1     0.2921
     46 H         -5.393403   -3.911163   6.472298 H        1 UNL1     0.2922
     47 H         0.513739   0.361022   2.263391 H        1 UNL1     0.2126
     48 H         1.199202   -1.885556   -0.291846 H        1 UNL1     0.2101
     49 H         -2.019943   0.937491   -0.901768 H        1 UNL1     0.2100
     50 H         -2.679732   -3.33219   -1.157689 H        1 UNL1     0.2102
@<TRIPOS>BOND
     1     1     2    1
     2     1     6    1
     3     2     3    1
     4     3     4    1
     5     3    29    1
     6     3    33    1
     7     4     5    1
     8     5     6    1
     9     5     7    1
    10     5    35    1
    11     7     8    1
    12     8     9   ar
    13     8    13   ar
    14     9    10   ar
    15     9    36    1
    16    10    11   ar
    17    10    26    1
    18    11    12   ar
    19    11    14    1
    20    12    13   ar
    21    12    17    1
    22    13    37    1
    23    14    15    1
    24    14    25    2
    25    15    16    1
    26    15    38    1
    27    15    39    1
    28    16    17    1
    29    16    18    1
    30    16    40    1
    31    18    19   ar
    32    18    23   ar
    33    19    20   ar
    34    19    41    1
    35    20    21   ar
    36    20    42    1
    37    21    22   ar
    38    21    24    1
    39    22    23   ar
    40    22    43    1
    41    23    44    1
    42    24    45    1
    43    26    46    1
    44    27    47    1
    45    28    48    1
    46    29    49    1
    47    30    50    1
    48     1    31    1
    49     1    27    1
    50     2    32    1
    51     2    28    1
    52     4    34    1
    53     4    30    1
