@<TRIPOS>MOLECULE
*****
 50 53 0 0 0
SMALL
GASTEIGER

@<TRIPOS>ATOM
     1 C         -0.349047   -1.335827   1.692494 C.3        1 UNL1     0.1889
     2 C         -0.471542   -0.972521   0.188186 C.3        1 UNL1     0.1342
     3 C         -1.910469   -0.944162   -0.34954 C.3        1 UNL1     0.1174
     4 C         -2.80808   -1.999709   0.301024 C.3        1 UNL1     0.1456
     5 C         -2.66168   -2.035785   1.833221 C.3        1 UNL1     0.2326
     6 O         -1.299875   -2.26788   2.186051 O.3        1 UNL1     -0.3076
     7 O         -3.228744   -0.887807   2.490418 O.3        1 UNL1     -0.4605
     8 C         -3.744247   -1.10657   3.7553 C.ar        1 UNL1     0.1310
     9 C         -4.570923   -2.174748   4.119855 C.ar        1 UNL1     0.0226
     10 C         -5.029185   -2.319234   5.434778 C.ar        1 UNL1     0.1343
     11 C         -4.65209   -1.411294   6.423355 C.ar        1 UNL1     0.1007
     12 C         -3.860403   -0.317737   6.062592 C.ar        1 UNL1     0.1389
     13 C         -3.401918   -0.171223   4.739809 C.ar        1 UNL1     0.0229
     14 C         -5.038433   -1.562497   7.845336 C.2        1 UNL1     0.1740
     15 C         -4.364369   -0.625828   8.804418 C.3        1 UNL1     0.0520
     16 C         -4.281277   0.749467   8.15664 C.3        1 UNL1     0.1322
     17 O         -3.519383   0.693567   6.930483 O.3        1 UNL1     -0.4828
     18 C         -5.634146   1.454275   8.031287 C.ar        1 UNL1     -0.0067
     19 C         -6.004547   2.027824   6.79757 C.ar        1 UNL1     -0.0516
     20 C         -7.213505   2.720572   6.661615 C.ar        1 UNL1     -0.0198
     21 C         -8.055445   2.852761   7.751335 C.ar        1 UNL1     0.1169
     22 C         -7.733862   2.270332   8.970433 C.ar        1 UNL1     -0.0198
     23 C         -6.533569   1.561735   9.101747 C.ar        1 UNL1     -0.0516
     24 O         -9.206573   3.566636   7.591066 O.3        1 UNL1     -0.5068
     25 O         -5.79603   -2.44022   8.250471 O.2        1 UNL1     -0.2917
     26 O         -5.833547   -3.382485   5.724751 O.3        1 UNL1     -0.5058
     27 O         -0.236583   -0.203754   2.540166 O.3        1 UNL1     -0.3648
     28 O         0.252931   -1.952573   -0.578197 O.3        1 UNL1     -0.3841
     29 O         -2.45671   0.373771   -0.267048 O.3        1 UNL1     -0.3863
     30 O         -2.470159   -3.300248   -0.228217 O.3        1 UNL1     -0.3829
     31 H         0.60673   -1.857768   1.811436 H        1 UNL1     0.0937
     32 H         0.0   0.0   0.0 H        1 UNL1     0.0671
     33 H         -1.872055   -1.177426   -1.422774 H        1 UNL1     0.0649
     34 H         -3.855772   -1.810652   0.042179 H        1 UNL1     0.0683
     35 H         -3.225158   -2.928646   2.131836 H        1 UNL1     0.1085
     36 H         -4.853826   -2.944736   3.410484 H        1 UNL1     0.0691
     37 H         -2.787677   0.689554   4.484339 H        1 UNL1     0.0691
     38 H         -3.36605   -1.025807   9.011551 H        1 UNL1     0.0385
     39 H         -4.92727   -0.607684   9.743881 H        1 UNL1     0.0385
     40 H         -3.682899   1.385489   8.82293 H        1 UNL1     0.0789
     41 H         -5.3568   1.945828   5.929612 H        1 UNL1     0.0623
     42 H         -7.482361   3.168589   5.708195 H        1 UNL1     0.0654
     43 H         -8.392954   2.354877   9.826214 H        1 UNL1     0.0654
     44 H         -6.319208   1.110639   10.065805 H        1 UNL1     0.0623
     45 H         -8.972003   4.473473   7.335448 H        1 UNL1     0.2921
     46 H         -5.435671   -3.903563   6.440003 H        1 UNL1     0.2922
     47 H         0.512186   0.345098   2.268197 H        1 UNL1     0.2126
     48 H         1.185342   -1.897098   -0.293128 H        1 UNL1     0.2101
     49 H         -2.01066   0.956239   -0.902315 H        1 UNL1     0.2100
     50 H         -2.700441   -3.307416   -1.180389 H        1 UNL1     0.2102
@<TRIPOS>BOND
     1     1     2    1
     2     1     6    1
     3     2     3    1
     4     3     4    1
     5     3    29    1
     6     3    33    1
     7     4     5    1
     8     5     6    1
     9     5     7    1
    10     5    35    1
    11     7     8    1
    12     8     9   ar
    13     8    13   ar
    14     9    10   ar
    15     9    36    1
    16    10    11   ar
    17    10    26    1
    18    11    12   ar
    19    11    14    1
    20    12    13   ar
    21    12    17    1
    22    13    37    1
    23    14    15    1
    24    14    25    2
    25    15    16    1
    26    15    38    1
    27    15    39    1
    28    16    17    1
    29    16    18    1
    30    16    40    1
    31    18    19   ar
    32    18    23   ar
    33    19    20   ar
    34    19    41    1
    35    20    21   ar
    36    20    42    1
    37    21    22   ar
    38    21    24    1
    39    22    23   ar
    40    22    43    1
    41    23    44    1
    42    24    45    1
    43    26    46    1
    44    27    47    1
    45    28    48    1
    46    29    49    1
    47    30    50    1
    48     1    31    1
    49     1    27    1
    50     2    32    1
    51     2    28    1
    52     4    34    1
    53     4    30    1
