@<TRIPOS>MOLECULE
*****
 50 53 0 0 0
SMALL
GASTEIGER

@<TRIPOS>ATOM
     1 C         -0.065948   -1.178114   1.838071 C.3        1 UNL1     0.1889
     2 C         -0.231132   -1.029136   0.301692 C.3        1 UNL1     0.1342
     3 C         -1.620448   -1.408219   -0.233626 C.3        1 UNL1     0.1174
     4 C         -2.257828   -2.566705   0.53759 C.3        1 UNL1     0.1456
     5 C         -2.148143   -2.391286   2.063224 C.3        1 UNL1     0.2326
     6 O         -0.78021   -2.248242   2.438945 O.3        1 UNL1     -0.3076
     7 O         -2.989772   -1.345379   2.581935 O.3        1 UNL1     -0.4605
     8 C         -3.472002   -1.535319   3.864473 C.ar        1 UNL1     0.1310
     9 C         -4.029846   -2.721664   4.35304 C.ar        1 UNL1     0.0226
     10 C         -4.475542   -2.820553   5.676475 C.ar        1 UNL1     0.1343
     11 C         -4.352236   -1.741838   6.551123 C.ar        1 UNL1     0.1007
     12 C         -3.834509   -0.538983   6.063392 C.ar        1 UNL1     0.1389
     13 C         -3.388869   -0.438982   4.731914 C.ar        1 UNL1     0.0229
     14 C         -4.729377   -1.817728   7.981564 C.2        1 UNL1     0.1740
     15 C         -4.323817   -0.643491   8.823133 C.3        1 UNL1     0.0520
     16 C         -4.553454   0.628305   8.018298 C.3        1 UNL1     0.1322
     17 O         -3.767619   0.616943   6.806108 O.3        1 UNL1     -0.4828
     18 C         -6.031427   0.969137   7.812986 C.ar        1 UNL1     -0.0067
     19 C         -6.494625   1.292296   6.520999 C.ar        1 UNL1     -0.0516
     20 C         -7.829727   1.65479   6.306373 C.ar        1 UNL1     -0.0198
     21 C         -8.707794   1.704919   7.374226 C.ar        1 UNL1     0.1169
     22 C         -8.289484   1.359824   8.652806 C.ar        1 UNL1     -0.0198
     23 C         -6.958894   0.979442   8.864696 C.ar        1 UNL1     -0.0516
     24 O         -9.991134   2.098868   7.132892 O.3        1 UNL1     -0.5068
     25 O         -5.266618   -2.799257   8.48798 O.2        1 UNL1     -0.2917
     26 O         -5.010898   -4.00532   6.090367 O.3        1 UNL1     -0.5058
     27 O         -0.24918   0.037139   2.546854 O.3        1 UNL1     -0.3648
     28 O         0.726232   -1.887889   -0.345381 O.3        1 UNL1     -0.3841
     29 O         -2.466958   -0.259146   -0.305624 O.3        1 UNL1     -0.3863
     30 O         -1.605739   -3.800007   0.164178 O.3        1 UNL1     -0.3829
     31 H         0.983118   -1.438578   2.01611 H        1 UNL1     0.0937
     32 H         0.0   0.0   0.0 H        1 UNL1     0.0671
     33 H         -1.498832   -1.746548   -1.272117 H        1 UNL1     0.0649
     34 H         -3.313072   -2.665194   0.259814 H        1 UNL1     0.0683
     35 H         -2.490467   -3.353044   2.46536 H        1 UNL1     0.1085
     36 H         -4.102052   -3.61289   3.739344 H        1 UNL1     0.0691
     37 H         -2.990775   0.508945   4.376318 H        1 UNL1     0.0691
     38 H         -3.264869   -0.766094   9.074378 H        1 UNL1     0.0385
     39 H         -4.899789   -0.653586   9.754762 H        1 UNL1     0.0385
     40 H         -4.141904   1.461086   8.604491 H        1 UNL1     0.0789
     41 H         -5.822984   1.269345   5.667757 H        1 UNL1     0.0623
     42 H         -8.171941   1.913303   5.307337 H        1 UNL1     0.0654
     43 H         -8.972419   1.381121   9.493672 H        1 UNL1     0.0654
     44 H         -6.669136   0.706112   9.874734 H        1 UNL1     0.0623
     45 H         -9.972608   3.000161   6.772277 H        1 UNL1     0.2921
     46 H         -4.51964   -4.330557   6.861274 H        1 UNL1     0.2922
     47 H         0.354275   0.71471   2.211295 H        1 UNL1     0.2126
     48 H         1.610588   -1.578513   -0.069821 H        1 UNL1     0.2101
     49 H         -2.15567   0.336741   -1.00549 H        1 UNL1     0.2100
     50 H         -1.802092   -3.970942   -0.780248 H        1 UNL1     0.2102
@<TRIPOS>BOND
     1     1     2    1
     2     1     6    1
     3     2     3    1
     4     3     4    1
     5     3    29    1
     6     3    33    1
     7     4     5    1
     8     5     6    1
     9     5     7    1
    10     5    35    1
    11     7     8    1
    12     8     9   ar
    13     8    13   ar
    14     9    10   ar
    15     9    36    1
    16    10    11   ar
    17    10    26    1
    18    11    12   ar
    19    11    14    1
    20    12    13   ar
    21    12    17    1
    22    13    37    1
    23    14    15    1
    24    14    25    2
    25    15    16    1
    26    15    38    1
    27    15    39    1
    28    16    17    1
    29    16    18    1
    30    16    40    1
    31    18    19   ar
    32    18    23   ar
    33    19    20   ar
    34    19    41    1
    35    20    21   ar
    36    20    42    1
    37    21    22   ar
    38    21    24    1
    39    22    23   ar
    40    22    43    1
    41    23    44    1
    42    24    45    1
    43    26    46    1
    44    27    47    1
    45    28    48    1
    46    29    49    1
    47    30    50    1
    48     1    31    1
    49     1    27    1
    50     2    32    1
    51     2    28    1
    52     4    34    1
    53     4    30    1
