@<TRIPOS>MOLECULE
*****
 50 53 0 0 0
SMALL
GASTEIGER

@<TRIPOS>ATOM
     1 C         -0.046167   -1.160527   1.849825 C.3        1 UNL1     0.1889
     2 C         -0.290998   -1.00674   0.324588 C.3        1 UNL1     0.1342
     3 C         -1.734829   -1.280053   -0.123872 C.3        1 UNL1     0.1174
     4 C         -2.412001   -2.382105   0.694686 C.3        1 UNL1     0.1456
     5 C         -2.198147   -2.208235   2.209413 C.3        1 UNL1     0.2326
     6 O         -0.803259   -2.169382   2.502066 O.3        1 UNL1     -0.3076
     7 O         -2.924477   -1.097963   2.767142 O.3        1 UNL1     -0.4605
     8 C         -3.740238   -0.40545   1.890508 C.ar        1 UNL1     0.1310
     9 C         -3.30709   0.28095   0.750974 C.ar        1 UNL1     0.0226
     10 C         -4.21554   0.939689   -0.086094 C.ar        1 UNL1     0.1343
     11 C         -5.583109   0.907906   0.183325 C.ar        1 UNL1     0.1007
     12 C         -6.023591   0.260381   1.34068 C.ar        1 UNL1     0.1389
     13 C         -5.109681   -0.399661   2.183617 C.ar        1 UNL1     0.0229
     14 C         -6.594646   1.515326   -0.712212 C.2        1 UNL1     0.1740
     15 C         -8.024402   1.195378   -0.388206 C.3        1 UNL1     0.0520
     16 C         -8.194947   1.229657   1.124308 C.3        1 UNL1     0.1322
     17 O         -7.33386   0.259065   1.759562 O.3        1 UNL1     -0.4828
     18 C         -8.114213   2.636519   1.721757 C.ar        1 UNL1     -0.0067
     19 C         -8.443158   2.832548   3.078806 C.ar        1 UNL1     -0.0516
     20 C         -8.425601   4.113054   3.644455 C.ar        1 UNL1     -0.0198
     21 C         -8.088708   5.204125   2.863498 C.ar        1 UNL1     0.1169
     22 C         -7.727534   5.038909   1.532673 C.ar        1 UNL1     -0.0198
     23 C         -7.727133   3.756246   0.971574 C.ar        1 UNL1     -0.0516
     24 O         -8.119277   6.440291   3.439137 O.3        1 UNL1     -0.5068
     25 O         -6.307369   2.174415   -1.707982 O.2        1 UNL1     -0.2917
     26 O         -3.728335   1.591735   -1.181106 O.3        1 UNL1     -0.5058
     27 O         -0.092859   0.068688   2.556676 O.3        1 UNL1     -0.3648
     28 O         0.557211   -1.939978   -0.369901 O.3        1 UNL1     -0.3841
     29 O         -2.493419   -0.069429   -0.156475 O.3        1 UNL1     -0.3863
     30 O         -1.880009   -3.663871   0.294997 O.3        1 UNL1     -0.3829
     31 H         0.988572   -1.500322   1.967863 H        1 UNL1     0.0937
     32 H         0.0   0.0   0.0 H        1 UNL1     0.0671
     33 H         -1.701858   -1.631822   -1.164492 H        1 UNL1     0.0649
     34 H         -3.486408   -2.400197   0.480857 H        1 UNL1     0.0683
     35 H         -2.588631   -3.138726   2.640214 H        1 UNL1     0.1085
     36 H         -2.263461   0.29564   0.456451 H        1 UNL1     0.0691
     37 H         -5.477903   -0.895521   3.079178 H        1 UNL1     0.0691
     38 H         -8.239336   0.198397   -0.787404 H        1 UNL1     0.0385
     39 H         -8.676874   1.91466   -0.894855 H        1 UNL1     0.0385
     40 H         -9.212541   0.878884   1.343354 H        1 UNL1     0.0789
     41 H         -8.71988   1.993516   3.71055 H        1 UNL1     0.0623
     42 H         -8.692783   4.252728   4.689021 H        1 UNL1     0.0654
     43 H         -7.447464   5.884611   0.916021 H        1 UNL1     0.0654
     44 H         -7.429322   3.66275   -0.068335 H        1 UNL1     0.0623
     45 H         -8.679384   6.396097   4.230997 H        1 UNL1     0.2921
     46 H         -4.284405   1.391816   -1.950671 H        1 UNL1     0.2922
     47 H         0.74241   0.54583   2.454109 H        1 UNL1     0.2126
     48 H         0.431648   -1.775343   -1.324292 H        1 UNL1     0.2101
     49 H         -3.382941   -0.227724   0.197768 H        1 UNL1     0.2100
     50 H         -2.180099   -3.84274   -0.620243 H        1 UNL1     0.2102
@<TRIPOS>BOND
     1     1     2    1
     2     1     6    1
     3     2     3    1
     4     3     4    1
     5     3    29    1
     6     3    33    1
     7     4     5    1
     8     5     6    1
     9     5     7    1
    10     5    35    1
    11     7     8    1
    12     8     9   ar
    13     8    13   ar
    14     9    10   ar
    15     9    36    1
    16    10    11   ar
    17    10    26    1
    18    11    12   ar
    19    11    14    1
    20    12    13   ar
    21    12    17    1
    22    13    37    1
    23    14    15    1
    24    14    25    2
    25    15    16    1
    26    15    38    1
    27    15    39    1
    28    16    17    1
    29    16    18    1
    30    16    40    1
    31    18    19   ar
    32    18    23   ar
    33    19    20   ar
    34    19    41    1
    35    20    21   ar
    36    20    42    1
    37    21    22   ar
    38    21    24    1
    39    22    23   ar
    40    22    43    1
    41    23    44    1
    42    24    45    1
    43    26    46    1
    44    27    47    1
    45    28    48    1
    46    29    49    1
    47    30    50    1
    48     1    31    1
    49     1    27    1
    50     2    32    1
    51     2    28    1
    52     4    34    1
    53     4    30    1
