@<TRIPOS>MOLECULE
*****
 50 53 0 0 0
SMALL
GASTEIGER

@<TRIPOS>ATOM
     1 C         -0.393828   -1.378364   1.647973 C.3        1 UNL1     0.1889
     2 C         -0.493035   -0.967844   0.154129 C.3        1 UNL1     0.1342
     3 C         -1.925325   -0.89396   -0.396829 C.3        1 UNL1     0.1174
     4 C         -2.850888   -1.949861   0.212697 C.3        1 UNL1     0.1456
     5 C         -2.721474   -2.034689   1.7445 C.3        1 UNL1     0.2326
     6 O         -1.368442   -2.305071   2.103756 O.3        1 UNL1     -0.3076
     7 O         -3.272184   -0.895482   2.430246 O.3        1 UNL1     -0.4605
     8 C         -3.815971   -1.143455   3.677776 C.ar        1 UNL1     0.1310
     9 C         -4.901787   -1.98725   3.935292 C.ar        1 UNL1     0.0226
     10 C         -5.369587   -2.187205   5.239548 C.ar        1 UNL1     0.1343
     11 C         -4.747211   -1.566152   6.321575 C.ar        1 UNL1     0.1007
     12 C         -3.687986   -0.689231   6.072906 C.ar        1 UNL1     0.1389
     13 C         -3.219486   -0.486288   4.761131 C.ar        1 UNL1     0.0229
     14 C         -5.146722   -1.807276   7.727421 C.2        1 UNL1     0.1740
     15 C         -4.231273   -1.235412   8.769762 C.3        1 UNL1     0.0520
     16 C         -3.778093   0.143102   8.309019 C.3        1 UNL1     0.1322
     17 O         -3.072911   0.057173   7.051083 O.3        1 UNL1     -0.4828
     18 C         -4.885094   1.199507   8.344811 C.ar        1 UNL1     -0.0067
     19 C         -5.896524   1.176313   7.362627 C.ar        1 UNL1     -0.0516
     20 C         -6.896764   2.155543   7.3383 C.ar        1 UNL1     -0.0198
     21 C         -6.892408   3.165168   8.284062 C.ar        1 UNL1     0.1169
     22 C         -5.929017   3.195751   9.283952 C.ar        1 UNL1     -0.0198
     23 C         -4.939359   2.206123   9.319581 C.ar        1 UNL1     -0.0516
     24 O         -7.860476   4.122852   8.206044 O.3        1 UNL1     -0.5068
     25 O         -6.113203   -2.49435   8.047307 O.2        1 UNL1     -0.2917
     26 O         -6.433304   -3.021769   5.422828 O.3        1 UNL1     -0.5058
     27 O         -0.267523   -0.274663   2.5304 O.3        1 UNL1     -0.3648
     28 O         0.219587   -1.939199   -0.634126 O.3        1 UNL1     -0.3841
     29 O         -2.445703   0.431834   -0.280178 O.3        1 UNL1     -0.3863
     30 O         -2.533695   -3.240659   -0.352033 O.3        1 UNL1     -0.3829
     31 H         0.54991   -1.923097   1.760688 H        1 UNL1     0.0937
     32 H         0.0   0.0   0.0 H        1 UNL1     0.0671
     33 H         -1.880265   -1.095795   -1.476158 H        1 UNL1     0.0649
     34 H         -3.891753   -1.731731   -0.050782 H        1 UNL1     0.0683
     35 H         -3.305984   -2.924341   2.010481 H        1 UNL1     0.1085
     36 H         -5.392908   -2.542316   3.143571 H        1 UNL1     0.0691
     37 H         -2.394039   0.202341   4.594034 H        1 UNL1     0.0691
     38 H         -3.380152   -1.916939   8.872919 H        1 UNL1     0.0385
     39 H         -4.758345   -1.198738   9.729256 H        1 UNL1     0.0385
     40 H         -3.021135   0.491033   9.024894 H        1 UNL1     0.0789
     41 H         -5.916758   0.39958   6.603729 H        1 UNL1     0.0623
     42 H         -7.664363   2.133601   6.568676 H        1 UNL1     0.0654
     43 H         -5.925027   3.973283   10.038498 H        1 UNL1     0.0654
     44 H         -4.208589   2.254861   10.121107 H        1 UNL1     0.0623
     45 H         -7.449611   4.950737   7.908534 H        1 UNL1     0.2921
     46 H         -6.25851   -3.608084   6.175884 H        1 UNL1     0.2922
     47 H         0.488194   0.27292   2.275637 H        1 UNL1     0.2126
     48 H         0.954382   -1.463373   -1.06702 H        1 UNL1     0.2101
     49 H         -3.00272   0.499244   0.511644 H        1 UNL1     0.2100
     50 H         -1.580732   -3.244477   -0.5791 H        1 UNL1     0.2102
@<TRIPOS>BOND
     1     1     2    1
     2     1     6    1
     3     2     3    1
     4     3     4    1
     5     3    29    1
     6     3    33    1
     7     4     5    1
     8     5     6    1
     9     5     7    1
    10     5    35    1
    11     7     8    1
    12     8     9   ar
    13     8    13   ar
    14     9    10   ar
    15     9    36    1
    16    10    11   ar
    17    10    26    1
    18    11    12   ar
    19    11    14    1
    20    12    13   ar
    21    12    17    1
    22    13    37    1
    23    14    15    1
    24    14    25    2
    25    15    16    1
    26    15    38    1
    27    15    39    1
    28    16    17    1
    29    16    18    1
    30    16    40    1
    31    18    19   ar
    32    18    23   ar
    33    19    20   ar
    34    19    41    1
    35    20    21   ar
    36    20    42    1
    37    21    22   ar
    38    21    24    1
    39    22    23   ar
    40    22    43    1
    41    23    44    1
    42    24    45    1
    43    26    46    1
    44    27    47    1
    45    28    48    1
    46    29    49    1
    47    30    50    1
    48     1    31    1
    49     1    27    1
    50     2    32    1
    51     2    28    1
    52     4    34    1
    53     4    30    1
