@<TRIPOS>MOLECULE
*****
 50 53 0 0 0
SMALL
GASTEIGER

@<TRIPOS>ATOM
     1 C         -0.329428   -1.327605   1.702864 C.3        1 UNL1     0.1889
     2 C         -0.461364   -0.975724   0.196639 C.3        1 UNL1     0.1342
     3 C         -1.902608   -0.964904   -0.335493 C.3        1 UNL1     0.1174
     4 C         -2.787391   -2.024619   0.325779 C.3        1 UNL1     0.1456
     5 C         -2.634608   -2.048872   1.857586 C.3        1 UNL1     0.2326
     6 O         -1.26924   -2.265414   2.206513 O.3        1 UNL1     -0.3076
     7 O         -3.210156   -0.901982   2.509282 O.3        1 UNL1     -0.4605
     8 C         -3.718526   -1.117111   3.777669 C.ar        1 UNL1     0.1310
     9 C         -4.533385   -2.190715   4.152742 C.ar        1 UNL1     0.0226
     10 C         -4.985038   -2.33068   5.470437 C.ar        1 UNL1     0.1343
     11 C         -4.61285   -1.412449   6.451339 C.ar        1 UNL1     0.1007
     12 C         -3.83321   -0.313781   6.080027 C.ar        1 UNL1     0.1389
     13 C         -3.381383   -0.171838   4.754457 C.ar        1 UNL1     0.0229
     14 C         -4.992101   -1.557711   7.875847 C.2        1 UNL1     0.1740
     15 C         -4.323354   -0.608089   8.82587 C.3        1 UNL1     0.0520
     16 C         -4.256128   0.763513   8.168491 C.3        1 UNL1     0.1322
     17 O         -3.49857   0.706639   6.939694 O.3        1 UNL1     -0.4828
     18 C         -5.616237   1.454367   8.043804 C.ar        1 UNL1     -0.0067
     19 C         -5.997033   2.015921   6.807736 C.ar        1 UNL1     -0.0516
     20 C         -7.213164   2.696032   6.671953 C.ar        1 UNL1     -0.0198
     21 C         -8.052039   2.827491   7.764122 C.ar        1 UNL1     0.1169
     22 C         -7.720031   2.256486   8.985827 C.ar        1 UNL1     -0.0198
     23 C         -6.51243   1.560412   9.117111 C.ar        1 UNL1     -0.0516
     24 O         -9.210644   3.529121   7.603651 O.3        1 UNL1     -0.5068
     25 O         -5.739566   -2.439931   8.289935 O.2        1 UNL1     -0.2917
     26 O         -5.777924   -3.399649   5.770808 O.3        1 UNL1     -0.5058
     27 O         -0.224581   -0.188768   2.542413 O.3        1 UNL1     -0.3648
     28 O         0.269529   -1.953924   -0.566005 O.3        1 UNL1     -0.3841
     29 O         -2.461246   0.348227   -0.259715 O.3        1 UNL1     -0.3863
     30 O         -2.438992   -3.325403   -0.196016 O.3        1 UNL1     -0.3829
     31 H         0.631816   -1.83948   1.821496 H        1 UNL1     0.0937
     32 H         0.0   0.0   0.0 H        1 UNL1     0.0671
     33 H         -1.866171   -1.205072   -1.407272 H        1 UNL1     0.0649
     34 H         -3.837876   -1.847442   0.069865 H        1 UNL1     0.0683
     35 H         -3.188239   -2.945079   2.164481 H        1 UNL1     0.1085
     36 H         -4.811619   -2.968197   3.449728 H        1 UNL1     0.0691
     37 H         -2.776512   0.69307   4.490719 H        1 UNL1     0.0691
     38 H         -3.320403   -0.996999   9.031696 H        1 UNL1     0.0385
     39 H         -4.882695   -0.588995   9.767439 H        1 UNL1     0.0385
     40 H         -3.66131   1.40979   8.828064 H        1 UNL1     0.0789
     41 H         -5.35195   1.934285   5.937762 H        1 UNL1     0.0623
     42 H         -7.4901   3.134948   5.716614 H        1 UNL1     0.0654
     43 H         -8.37653   2.34048   9.843653 H        1 UNL1     0.0654
     44 H         -6.289913   1.117965   10.083327 H        1 UNL1     0.0623
     45 H         -8.985866   4.436446   7.341061 H        1 UNL1     0.2921
     46 H         -5.372208   -3.911993   6.487962 H        1 UNL1     0.2922
     47 H         0.517764   0.365423   2.263743 H        1 UNL1     0.2126
     48 H         1.202477   -1.88752   -0.285058 H        1 UNL1     0.2101
     49 H         -2.02336   0.930643   -0.900685 H        1 UNL1     0.2100
     50 H         -2.672947   -3.34126   -1.147187 H        1 UNL1     0.2102
@<TRIPOS>BOND
     1     1     2    1
     2     1     6    1
     3     2     3    1
     4     3     4    1
     5     3    29    1
     6     3    33    1
     7     4     5    1
     8     5     6    1
     9     5     7    1
    10     5    35    1
    11     7     8    1
    12     8     9   ar
    13     8    13   ar
    14     9    10   ar
    15     9    36    1
    16    10    11   ar
    17    10    26    1
    18    11    12   ar
    19    11    14    1
    20    12    13   ar
    21    12    17    1
    22    13    37    1
    23    14    15    1
    24    14    25    2
    25    15    16    1
    26    15    38    1
    27    15    39    1
    28    16    17    1
    29    16    18    1
    30    16    40    1
    31    18    19   ar
    32    18    23   ar
    33    19    20   ar
    34    19    41    1
    35    20    21   ar
    36    20    42    1
    37    21    22   ar
    38    21    24    1
    39    22    23   ar
    40    22    43    1
    41    23    44    1
    42    24    45    1
    43    26    46    1
    44    27    47    1
    45    28    48    1
    46    29    49    1
    47    30    50    1
    48     1    31    1
    49     1    27    1
    50     2    32    1
    51     2    28    1
    52     4    34    1
    53     4    30    1
