@<TRIPOS>MOLECULE
*****
 50 53 0 0 0
SMALL
GASTEIGER

@<TRIPOS>ATOM
     1 C         -0.323092   -1.362479   1.676325 C.3        1 UNL1     0.1889
     2 C         -0.46442   -0.977662   0.179034 C.3        1 UNL1     0.1342
     3 C         -1.909455   -0.94895   -0.342039 C.3        1 UNL1     0.1174
     4 C         -2.794266   -2.018696   0.302842 C.3        1 UNL1     0.1456
     5 C         -2.630388   -2.076608   1.832598 C.3        1 UNL1     0.2326
     6 O         -1.26352   -2.306709   2.166653 O.3        1 UNL1     -0.3076
     7 O         -3.195842   -0.941457   2.51305 O.3        1 UNL1     -0.4605
     8 C         -3.484698   -1.120542   3.853952 C.ar        1 UNL1     0.1310
     9 C         -4.138051   -2.230131   4.400982 C.ar        1 UNL1     0.0226
     10 C         -4.369977   -2.32713   5.778191 C.ar        1 UNL1     0.1343
     11 C         -3.932553   -1.326935   6.645436 C.ar        1 UNL1     0.1007
     12 C         -3.315447   -0.194905   6.106483 C.ar        1 UNL1     0.1389
     13 C         -3.08472   -0.096387   4.721387 C.ar        1 UNL1     0.0229
     14 C         -4.07646   -1.417341   8.116922 C.2        1 UNL1     0.1740
     15 C         -3.35443   -0.364771   8.905793 C.3        1 UNL1     0.0520
     16 C         -3.505711   0.967016   8.183702 C.3        1 UNL1     0.1322
     17 O         -2.942208   0.896984   6.855308 O.3        1 UNL1     -0.4828
     18 C         -4.922972   1.542071   8.242069 C.ar        1 UNL1     -0.0067
     19 C         -5.527558   2.015365   7.05941 C.ar        1 UNL1     -0.0516
     20 C         -6.80365   2.590578   7.085536 C.ar        1 UNL1     -0.0198
     21 C         -7.480931   2.704699   8.286408 C.ar        1 UNL1     0.1169
     22 C         -6.925736   2.217496   9.462516 C.ar        1 UNL1     -0.0198
     23 C         -5.657359   1.625509   9.433753 C.ar        1 UNL1     -0.0516
     24 O         -8.705784   3.304764   8.278787 O.3        1 UNL1     -0.5068
     25 O         -4.673877   -2.328948   8.683094 O.2        1 UNL1     -0.2917
     26 O         -5.013476   -3.434784   6.247867 O.3        1 UNL1     -0.5058
     27 O         -0.206838   -0.242462   2.539363 O.3        1 UNL1     -0.3648
     28 O         0.256341   -1.942468   -0.609864 O.3        1 UNL1     -0.3841
     29 O         -2.461444   0.364727   -0.233907 O.3        1 UNL1     -0.3863
     30 O         -2.455714   -3.309485   -0.249367 O.3        1 UNL1     -0.3829
     31 H         0.636617   -1.881077   1.776793 H        1 UNL1     0.0937
     32 H         0.0   0.0   0.0 H        1 UNL1     0.0671
     33 H         -1.881974   -1.166145   -1.418975 H        1 UNL1     0.0649
     34 H         -3.845764   -1.83136   0.058594 H        1 UNL1     0.0683
     35 H         -3.185897   -2.976734   2.124253 H        1 UNL1     0.1085
     36 H         -4.452654   -3.066681   3.786711 H        1 UNL1     0.0691
     37 H         -2.60331   0.795772   4.326685 H        1 UNL1     0.0691
     38 H         -2.302287   -0.662183   8.969569 H        1 UNL1     0.0385
     39 H         -3.763308   -0.333843   9.92149 H        1 UNL1     0.0385
     40 H         -2.874796   1.694927   8.711538 H        1 UNL1     0.0789
     41 H         -5.012814   1.945619   6.105563 H        1 UNL1     0.0623
     42 H         -7.254216   2.962628   6.168704 H        1 UNL1     0.0654
     43 H         -7.453716   2.288139   10.405997 H        1 UNL1     0.0654
     44 H         -5.258524   1.24614   10.369624 H        1 UNL1     0.0623
     45 H         -8.595212   4.223862   7.985957 H        1 UNL1     0.2921
     46 H         -4.462067   -3.869776   6.917301 H        1 UNL1     0.2922
     47 H         0.522968   0.325201   2.254756 H        1 UNL1     0.2126
     48 H         1.197938   -1.856147   -0.365578 H        1 UNL1     0.2101
     49 H         -2.031535   0.956833   -0.871389 H        1 UNL1     0.2100
     50 H         -2.701909   -3.305749   -1.197569 H        1 UNL1     0.2102
@<TRIPOS>BOND
     1     1     2    1
     2     1     6    1
     3     2     3    1
     4     3     4    1
     5     3    29    1
     6     3    33    1
     7     4     5    1
     8     5     6    1
     9     5     7    1
    10     5    35    1
    11     7     8    1
    12     8     9   ar
    13     8    13   ar
    14     9    10   ar
    15     9    36    1
    16    10    11   ar
    17    10    26    1
    18    11    12   ar
    19    11    14    1
    20    12    13   ar
    21    12    17    1
    22    13    37    1
    23    14    15    1
    24    14    25    2
    25    15    16    1
    26    15    38    1
    27    15    39    1
    28    16    17    1
    29    16    18    1
    30    16    40    1
    31    18    19   ar
    32    18    23   ar
    33    19    20   ar
    34    19    41    1
    35    20    21   ar
    36    20    42    1
    37    21    22   ar
    38    21    24    1
    39    22    23   ar
    40    22    43    1
    41    23    44    1
    42    24    45    1
    43    26    46    1
    44    27    47    1
    45    28    48    1
    46    29    49    1
    47    30    50    1
    48     1    31    1
    49     1    27    1
    50     2    32    1
    51     2    28    1
    52     4    34    1
    53     4    30    1
