@<TRIPOS>MOLECULE
*****
 50 53 0 0 0
SMALL
GASTEIGER

@<TRIPOS>ATOM
     1 C         -0.332219   -1.328379   1.701718 C.3        1 UNL1     0.1889
     2 C         -0.462577   -0.975354   0.195623 C.3        1 UNL1     0.1342
     3 C         -1.903385   -0.962618   -0.337645 C.3        1 UNL1     0.1174
     4 C         -2.789841   -2.021813   0.322219 C.3        1 UNL1     0.1456
     5 C         -2.638301   -2.04725   1.85413 C.3        1 UNL1     0.2326
     6 O         -1.273446   -2.265504   2.203997 O.3        1 UNL1     -0.3076
     7 O         -3.213124   -0.90017   2.506132 O.3        1 UNL1     -0.4605
     8 C         -3.723159   -1.115696   3.773783 C.ar        1 UNL1     0.1310
     9 C         -4.539779   -2.188582   4.14708 C.ar        1 UNL1     0.0226
     10 C         -4.993057   -2.329056   5.464163 C.ar        1 UNL1     0.1343
     11 C         -4.620795   -1.412096   6.446225 C.ar        1 UNL1     0.1007
     12 C         -3.839367   -0.314106   6.076671 C.ar        1 UNL1     0.1389
     13 C         -3.385904   -0.171648   4.751715 C.ar        1 UNL1     0.0229
     14 C         -5.001796   -1.558045   7.870196 C.2        1 UNL1     0.1740
     15 C         -4.332901   -0.610042   8.821731 C.3        1 UNL1     0.0520
     16 C         -4.263228   0.762011   8.165549 C.3        1 UNL1     0.1322
     17 O         -3.504391   0.705189   6.93754 O.3        1 UNL1     -0.4828
     18 C         -5.622331   1.454676   8.039934 C.ar        1 UNL1     -0.0067
     19 C         -6.000273   2.019355   6.804413 C.ar        1 UNL1     -0.0516
     20 C         -7.215389   2.701139   6.667936 C.ar        1 UNL1     -0.0198
     21 C         -8.056074   2.831167   7.758885 C.ar        1 UNL1     0.1169
     22 C         -7.726904   2.257125   8.979934 C.ar        1 UNL1     -0.0198
     23 C         -6.520327   1.559397   9.111862 C.ar        1 UNL1     -0.0516
     24 O         -9.213595   3.534459   7.597869 O.3        1 UNL1     -0.5068
     25 O         -5.750824   -2.439663   8.282739 O.2        1 UNL1     -0.2917
     26 O         -5.787616   -3.397272   5.762787 O.3        1 UNL1     -0.5058
     27 O         -0.226805   -0.190214   2.542108 O.3        1 UNL1     -0.3648
     28 O         0.267862   -1.953838   -0.567091 O.3        1 UNL1     -0.3841
     29 O         -2.46066   0.351067   -0.261437 O.3        1 UNL1     -0.3863
     30 O         -2.442436   -3.322626   -0.200165 O.3        1 UNL1     -0.3829
     31 H         0.628375   -1.841374   1.820772 H        1 UNL1     0.0937
     32 H         0.0   0.0   0.0 H        1 UNL1     0.0671
     33 H         -1.866356   -1.202113   -1.409555 H        1 UNL1     0.0649
     34 H         -3.839929   -1.843328   0.065589 H        1 UNL1     0.0683
     35 H         -3.193146   -2.94306   2.159989 H        1 UNL1     0.1085
     36 H         -4.818217   -2.965138   3.443124 H        1 UNL1     0.0691
     37 H         -2.779656   0.692714   4.48935 H        1 UNL1     0.0691
     38 H         -3.330667   -1.000382   9.028341 H        1 UNL1     0.0385
     39 H         -4.893254   -0.591015   9.7627 H        1 UNL1     0.0385
     40 H         -3.668325   1.407   8.826306 H        1 UNL1     0.0789
     41 H         -5.353723   1.938885   5.935421 H        1 UNL1     0.0623
     42 H         -7.490114   3.14245   5.713063 H        1 UNL1     0.0654
     43 H         -8.384846   2.339992   9.836763 H        1 UNL1     0.0654
     44 H         -6.300045   1.114593   10.077507 H        1 UNL1     0.0623
     45 H         -8.987291   4.442383   7.338683 H        1 UNL1     0.2921
     46 H         -5.38398   -3.909984   6.480851 H        1 UNL1     0.2922
     47 H         0.516255   0.363445   2.26429 H        1 UNL1     0.2126
     48 H         1.204376   -1.87259   -0.302378 H        1 UNL1     0.2101
     49 H         -2.021694   0.933412   -0.901732 H        1 UNL1     0.2100
     50 H         -2.675652   -3.337598   -1.151532 H        1 UNL1     0.2102
@<TRIPOS>BOND
     1     1     2    1
     2     1     6    1
     3     2     3    1
     4     3     4    1
     5     3    29    1
     6     3    33    1
     7     4     5    1
     8     5     6    1
     9     5     7    1
    10     5    35    1
    11     7     8    1
    12     8     9   ar
    13     8    13   ar
    14     9    10   ar
    15     9    36    1
    16    10    11   ar
    17    10    26    1
    18    11    12   ar
    19    11    14    1
    20    12    13   ar
    21    12    17    1
    22    13    37    1
    23    14    15    1
    24    14    25    2
    25    15    16    1
    26    15    38    1
    27    15    39    1
    28    16    17    1
    29    16    18    1
    30    16    40    1
    31    18    19   ar
    32    18    23   ar
    33    19    20   ar
    34    19    41    1
    35    20    21   ar
    36    20    42    1
    37    21    22   ar
    38    21    24    1
    39    22    23   ar
    40    22    43    1
    41    23    44    1
    42    24    45    1
    43    26    46    1
    44    27    47    1
    45    28    48    1
    46    29    49    1
    47    30    50    1
    48     1    31    1
    49     1    27    1
    50     2    32    1
    51     2    28    1
    52     4    34    1
    53     4    30    1
