@<TRIPOS>MOLECULE
*****
 50 53 0 0 0
SMALL
GASTEIGER

@<TRIPOS>ATOM
     1 C         -0.297697   -1.365934   1.678215 C.3        1 UNL1     0.1889
     2 C         -0.456324   -0.980783   0.182743 C.3        1 UNL1     0.1342
     3 C         -1.906605   -0.960944   -0.323969 C.3        1 UNL1     0.1174
     4 C         -2.778083   -2.036906   0.328678 C.3        1 UNL1     0.1456
     5 C         -2.598689   -2.095041   1.856684 C.3        1 UNL1     0.2326
     6 O         -1.227126   -2.316611   2.176981 O.3        1 UNL1     -0.3076
     7 O         -3.164664   -0.964126   2.543723 O.3        1 UNL1     -0.4605
     8 C         -3.651021   -1.208622   3.815418 C.ar        1 UNL1     0.1310
     9 C         -4.45784   -2.291851   4.180052 C.ar        1 UNL1     0.0226
     10 C         -4.886754   -2.462208   5.501761 C.ar        1 UNL1     0.1343
     11 C         -4.499191   -1.565586   6.496599 C.ar        1 UNL1     0.1007
     12 C         -3.727557   -0.457447   6.136888 C.ar        1 UNL1     0.1389
     13 C         -3.298607   -0.284935   4.807349 C.ar        1 UNL1     0.0229
     14 C         -4.853884   -1.743508   7.923726 C.2        1 UNL1     0.1740
     15 C         -4.170377   -0.814274   8.883357 C.3        1 UNL1     0.0520
     16 C         -4.116319   0.571874   8.255959 C.3        1 UNL1     0.1322
     17 O         -3.37975   0.543996   7.013477 O.3        1 UNL1     -0.4828
     18 C         -5.479336   1.262905   8.170017 C.ar        1 UNL1     -0.0067
     19 C         -5.880768   1.85385   6.954349 C.ar        1 UNL1     -0.0516
     20 C         -7.099986   2.534696   6.854751 C.ar        1 UNL1     -0.0198
     21 C         -7.921461   2.637686   7.963082 C.ar        1 UNL1     0.1169
     22 C         -7.569025   2.03755   9.164941 C.ar        1 UNL1     -0.0198
     23 C         -6.358383   1.340839   9.259786 C.ar        1 UNL1     -0.0516
     24 O         -9.083589   3.340763   7.838416 O.3        1 UNL1     -0.5068
     25 O         -5.592925   -2.636157   8.33052 O.2        1 UNL1     -0.2917
     26 O         -5.672884   -3.539084   5.791454 O.3        1 UNL1     -0.5058
     27 O         -0.180105   -0.245913   2.541067 O.3        1 UNL1     -0.3648
     28 O         0.262777   -1.940266   -0.61412 O.3        1 UNL1     -0.3841
     29 O         -2.465936   0.349059   -0.209195 O.3        1 UNL1     -0.3863
     30 O         -2.436722   -3.325026   -0.228017 O.3        1 UNL1     -0.3829
     31 H         0.666277   -1.878423   1.768708 H        1 UNL1     0.0937
     32 H         0.0   0.0   0.0 H        1 UNL1     0.0671
     33 H         -1.888399   -1.177057   -1.401319 H        1 UNL1     0.0649
     34 H         -3.833134   -1.856144   0.095023 H        1 UNL1     0.0683
     35 H         -3.145479   -2.998971   2.153015 H        1 UNL1     0.1085
     36 H         -4.746922   -3.053837   3.464559 H        1 UNL1     0.0691
     37 H         -2.699549   0.58677   4.552883 H        1 UNL1     0.0691
     38 H         -3.163511   -1.205905   9.063279 H        1 UNL1     0.0385
     39 H         -4.713604   -0.817354   9.834501 H        1 UNL1     0.0385
     40 H         -3.511254   1.204235   8.919688 H        1 UNL1     0.0789
     41 H         -5.249578   1.794838   6.072437 H        1 UNL1     0.0623
     42 H         -7.392881   2.99636   5.915022 H        1 UNL1     0.0654
     43 H         -8.211828   2.099194   10.034949 H        1 UNL1     0.0654
     44 H         -6.11972   0.875271   10.21117 H        1 UNL1     0.0623
     45 H         -8.864179   4.256333   7.601122 H        1 UNL1     0.2921
     46 H         -5.255577   -4.065224   6.491771 H        1 UNL1     0.2922
     47 H         0.553703   0.318084   2.259478 H        1 UNL1     0.2126
     48 H         1.202951   -1.865847   -0.360612 H        1 UNL1     0.2101
     49 H         -2.040355   0.946441   -0.844655 H        1 UNL1     0.2100
     50 H         -2.692319   -3.322083   -1.173731 H        1 UNL1     0.2102
@<TRIPOS>BOND
     1     1     2    1
     2     1     6    1
     3     2     3    1
     4     3     4    1
     5     3    29    1
     6     3    33    1
     7     4     5    1
     8     5     6    1
     9     5     7    1
    10     5    35    1
    11     7     8    1
    12     8     9   ar
    13     8    13   ar
    14     9    10   ar
    15     9    36    1
    16    10    11   ar
    17    10    26    1
    18    11    12   ar
    19    11    14    1
    20    12    13   ar
    21    12    17    1
    22    13    37    1
    23    14    15    1
    24    14    25    2
    25    15    16    1
    26    15    38    1
    27    15    39    1
    28    16    17    1
    29    16    18    1
    30    16    40    1
    31    18    19   ar
    32    18    23   ar
    33    19    20   ar
    34    19    41    1
    35    20    21   ar
    36    20    42    1
    37    21    22   ar
    38    21    24    1
    39    22    23   ar
    40    22    43    1
    41    23    44    1
    42    24    45    1
    43    26    46    1
    44    27    47    1
    45    28    48    1
    46    29    49    1
    47    30    50    1
    48     1    31    1
    49     1    27    1
    50     2    32    1
    51     2    28    1
    52     4    34    1
    53     4    30    1
