@<TRIPOS>MOLECULE
*****
 50 53 0 0 0
SMALL
GASTEIGER

@<TRIPOS>ATOM
     1 C         -0.33892   -1.333153   1.696656 C.3        1 UNL1     0.1889
     2 C         -0.465771   -0.974641   0.191559 C.3        1 UNL1     0.1342
     3 C         -1.905661   -0.955839   -0.344006 C.3        1 UNL1     0.1174
     4 C         -2.796316   -2.014641   0.310816 C.3        1 UNL1     0.1456
     5 C         -2.647358   -2.045718   1.842876 C.3        1 UNL1     0.2326
     6 O         -1.283728   -2.269189   2.194219 O.3        1 UNL1     -0.3076
     7 O         -3.219862   -0.899161   2.497833 O.3        1 UNL1     -0.4605
     8 C         -3.759712   -1.123897   3.751461 C.ar        1 UNL1     0.1310
     9 C         -4.598982   -2.189821   4.093124 C.ar        1 UNL1     0.0226
     10 C         -5.082099   -2.340971   5.398365 C.ar        1 UNL1     0.1343
     11 C         -4.718057   -1.442271   6.400189 C.ar        1 UNL1     0.1007
     12 C         -3.913697   -0.350794   6.06186 C.ar        1 UNL1     0.1389
     13 C         -3.430201   -0.197561   4.748779 C.ar        1 UNL1     0.0229
     14 C         -5.13127   -1.601315   7.813736 C.2        1 UNL1     0.1740
     15 C         -4.46961   -0.675401   8.791713 C.3        1 UNL1     0.0520
     16 C         -4.366851   0.70395   8.155484 C.3        1 UNL1     0.1322
     17 O         -3.582923   0.652332   6.943105 O.3        1 UNL1     -0.4828
     18 C         -5.713175   1.417468   8.010469 C.ar        1 UNL1     -0.0067
     19 C         -6.056427   2.004321   6.775157 C.ar        1 UNL1     -0.0516
     20 C         -7.258728   2.705067   6.622219 C.ar        1 UNL1     -0.0198
     21 C         -8.120933   2.832041   7.696606 C.ar        1 UNL1     0.1169
     22 C         -7.826253   2.236716   8.916275 C.ar        1 UNL1     -0.0198
     23 C         -6.632612   1.520213   9.06426 C.ar        1 UNL1     -0.0516
     24 O         -9.264828   3.55381   7.520673 O.3        1 UNL1     -0.5068
     25 O         -5.901136   -2.47748   8.198607 O.2        1 UNL1     -0.2917
     26 O         -5.897661   -3.401567   5.665906 O.3        1 UNL1     -0.5058
     27 O         -0.231525   -0.198159   2.541075 O.3        1 UNL1     -0.3648
     28 O         0.263026   -1.952688   -0.573284 O.3        1 UNL1     -0.3841
     29 O         -2.459183   0.359221   -0.264245 O.3        1 UNL1     -0.3863
     30 O         -2.451895   -3.314697   -0.215415 O.3        1 UNL1     -0.3829
     31 H         0.619961   -1.849385   1.81553 H        1 UNL1     0.0937
     32 H         0.0   0.0   0.0 H        1 UNL1     0.0671
     33 H         -1.867585   -1.191807   -1.416661 H        1 UNL1     0.0649
     34 H         -3.845451   -1.832184   0.053086 H        1 UNL1     0.0683
     35 H         -3.205343   -2.940917   2.14479 H        1 UNL1     0.1085
     36 H         -4.873187   -2.953102   3.373169 H        1 UNL1     0.0691
     37 H         -2.806505   0.661428   4.510798 H        1 UNL1     0.0691
     38 H         -3.477543   -1.082625   9.014198 H        1 UNL1     0.0385
     39 H         -5.049537   -0.660657   9.720823 H        1 UNL1     0.0385
     40 H         -3.777199   1.331746   8.837175 H        1 UNL1     0.0789
     41 H         -5.392407   1.926606   5.919185 H        1 UNL1     0.0623
     42 H         -7.50658   3.163267   5.667948 H        1 UNL1     0.0654
     43 H         -8.501365   2.317156   9.759877 H        1 UNL1     0.0654
     44 H         -6.439466   1.059144   10.028083 H        1 UNL1     0.0623
     45 H         -9.020315   4.464023   7.287344 H        1 UNL1     0.2921
     46 H         -5.517288   -3.928507   6.386366 H        1 UNL1     0.2922
     47 H         0.511932   0.355663   2.264649 H        1 UNL1     0.2126
     48 H         1.198468   -1.87899   -0.302638 H        1 UNL1     0.2101
     49 H         -2.019476   0.941707   -0.903903 H        1 UNL1     0.2100
     50 H         -2.688824   -3.327669   -1.165894 H        1 UNL1     0.2102
@<TRIPOS>BOND
     1     1     2    1
     2     1     6    1
     3     2     3    1
     4     3     4    1
     5     3    29    1
     6     3    33    1
     7     4     5    1
     8     5     6    1
     9     5     7    1
    10     5    35    1
    11     7     8    1
    12     8     9   ar
    13     8    13   ar
    14     9    10   ar
    15     9    36    1
    16    10    11   ar
    17    10    26    1
    18    11    12   ar
    19    11    14    1
    20    12    13   ar
    21    12    17    1
    22    13    37    1
    23    14    15    1
    24    14    25    2
    25    15    16    1
    26    15    38    1
    27    15    39    1
    28    16    17    1
    29    16    18    1
    30    16    40    1
    31    18    19   ar
    32    18    23   ar
    33    19    20   ar
    34    19    41    1
    35    20    21   ar
    36    20    42    1
    37    21    22   ar
    38    21    24    1
    39    22    23   ar
    40    22    43    1
    41    23    44    1
    42    24    45    1
    43    26    46    1
    44    27    47    1
    45    28    48    1
    46    29    49    1
    47    30    50    1
    48     1    31    1
    49     1    27    1
    50     2    32    1
    51     2    28    1
    52     4    34    1
    53     4    30    1
