@<TRIPOS>MOLECULE
*****
 50 53 0 0 0
SMALL
GASTEIGER

@<TRIPOS>ATOM
     1 C         -0.338185   -1.33256   1.697268 C.3        1 UNL1     0.1889
     2 C         -0.465765   -0.974533   0.192117 C.3        1 UNL1     0.1342
     3 C         -1.905924   -0.955774   -0.342725 C.3        1 UNL1     0.1174
     4 C         -2.796346   -2.014276   0.312898 C.3        1 UNL1     0.1456
     5 C         -2.646616   -2.044861   1.844893 C.3        1 UNL1     0.2326
     6 O         -1.282829   -2.268343   2.195619 O.3        1 UNL1     -0.3076
     7 O         -3.218681   -0.898034   2.49976 O.3        1 UNL1     -0.4605
     8 C         -3.730802   -1.115881   3.766173 C.ar        1 UNL1     0.1310
     9 C         -4.551106   -2.187409   4.135267 C.ar        1 UNL1     0.0226
     10 C         -5.006299   -2.330529   5.451404 C.ar        1 UNL1     0.1343
     11 C         -4.632357   -1.417717   6.436687 C.ar        1 UNL1     0.1007
     12 C         -3.847171   -0.320988   6.071373 C.ar        1 UNL1     0.1389
     13 C         -3.391779   -0.175861   4.747369 C.ar        1 UNL1     0.0229
     14 C         -5.015409   -1.566859   7.859776 C.2        1 UNL1     0.1740
     15 C         -4.344707   -0.623815   8.814959 C.3        1 UNL1     0.0520
     16 C         -4.270115   0.75002   8.163061 C.3        1 UNL1     0.1322
     17 O         -3.510067   0.694643   6.935734 O.3        1 UNL1     -0.4828
     18 C         -5.626959   1.447207   8.038044 C.ar        1 UNL1     -0.0067
     19 C         -6.001389   2.017628   6.804092 C.ar        1 UNL1     -0.0516
     20 C         -7.214264   2.703543   6.668384 C.ar        1 UNL1     -0.0198
     21 C         -8.05617   2.832001   7.758576 C.ar        1 UNL1     0.1169
     22 C         -7.730519   2.252417   8.97795 C.ar        1 UNL1     -0.0198
     23 C         -6.526224   1.5506   9.109037 C.ar        1 UNL1     -0.0516
     24 O         -9.21135   3.539344   7.598495 O.3        1 UNL1     -0.5068
     25 O         -5.767584   -2.447447   8.268777 O.2        1 UNL1     -0.2917
     26 O         -5.804444   -3.397226   5.745864 O.3        1 UNL1     -0.5058
     27 O         -0.230257   -0.197297   2.541257 O.3        1 UNL1     -0.3648
     28 O         0.262553   -1.952902   -0.572771 O.3        1 UNL1     -0.3841
     29 O         -2.459283   0.359364   -0.263119 O.3        1 UNL1     -0.3863
     30 O         -2.452314   -3.314538   -0.213078 O.3        1 UNL1     -0.3829
     31 H         0.620707   -1.848842   1.815828 H        1 UNL1     0.0937
     32 H         0.0   0.0   0.0 H        1 UNL1     0.0671
     33 H         -1.868414   -1.192101   -1.415321 H        1 UNL1     0.0649
     34 H         -3.845595   -1.831806   0.055639 H        1 UNL1     0.0683
     35 H         -3.204531   -2.939907   2.147385 H        1 UNL1     0.1085
     36 H         -4.831111   -2.960955   3.428624 H        1 UNL1     0.0691
     37 H         -2.782607   0.687448   4.488332 H        1 UNL1     0.0691
     38 H         -3.3439   -1.017838   9.021495 H        1 UNL1     0.0385
     39 H         -4.906062   -0.605958   9.755352 H        1 UNL1     0.0385
     40 H         -3.673997   1.391168   8.826456 H        1 UNL1     0.0789
     41 H         -5.353796   1.938476   5.935755 H        1 UNL1     0.0623
     42 H         -7.486259   3.149239   5.714767 H        1 UNL1     0.0654
     43 H         -8.389478   2.334044   9.834116 H        1 UNL1     0.0654
     44 H         -6.308698   1.101533   10.073332 H        1 UNL1     0.0623
     45 H         -8.981807   4.449029   7.348495 H        1 UNL1     0.2921
     46 H         -5.403872   -3.912585   6.46375 H        1 UNL1     0.2922
     47 H         0.513957   0.355653   2.26512 H        1 UNL1     0.2126
     48 H         1.198139   -1.879202   -0.302623 H        1 UNL1     0.2101
     49 H         -2.017941   0.942282   -0.901256 H        1 UNL1     0.2100
     50 H         -2.689725   -3.327803   -1.163432 H        1 UNL1     0.2102
@<TRIPOS>BOND
     1     1     2    1
     2     1     6    1
     3     2     3    1
     4     3     4    1
     5     3    29    1
     6     3    33    1
     7     4     5    1
     8     5     6    1
     9     5     7    1
    10     5    35    1
    11     7     8    1
    12     8     9   ar
    13     8    13   ar
    14     9    10   ar
    15     9    36    1
    16    10    11   ar
    17    10    26    1
    18    11    12   ar
    19    11    14    1
    20    12    13   ar
    21    12    17    1
    22    13    37    1
    23    14    15    1
    24    14    25    2
    25    15    16    1
    26    15    38    1
    27    15    39    1
    28    16    17    1
    29    16    18    1
    30    16    40    1
    31    18    19   ar
    32    18    23   ar
    33    19    20   ar
    34    19    41    1
    35    20    21   ar
    36    20    42    1
    37    21    22   ar
    38    21    24    1
    39    22    23   ar
    40    22    43    1
    41    23    44    1
    42    24    45    1
    43    26    46    1
    44    27    47    1
    45    28    48    1
    46    29    49    1
    47    30    50    1
    48     1    31    1
    49     1    27    1
    50     2    32    1
    51     2    28    1
    52     4    34    1
    53     4    30    1
