@<TRIPOS>MOLECULE
*****
 50 53 0 0 0
SMALL
GASTEIGER

@<TRIPOS>ATOM
     1 C         -1.066352   0.177311   1.897962 C.3        1 UNL1     0.1889
     2 C         -0.688298   0.702083   0.486711 C.3        1 UNL1     0.1342
     3 C         -0.065874   2.106642   0.470352 C.3        1 UNL1     0.1174
     4 C         -0.651665   3.027928   1.543291 C.3        1 UNL1     0.1456
     5 C         -0.741937   2.346676   2.92101 C.3        1 UNL1     0.2326
     6 O         -1.518046   1.154583   2.823871 O.3        1 UNL1     -0.3076
     7 O         0.53931   2.138653   3.542665 O.3        1 UNL1     -0.4605
     8 C         0.612937   1.092016   4.44414 C.ar        1 UNL1     0.1310
     9 C         1.794889   0.520464   4.927481 C.ar        1 UNL1     0.0226
     10 C         1.76537   -0.52815   5.854539 C.ar        1 UNL1     0.1343
     11 C         0.552249   -1.015212   6.339255 C.ar        1 UNL1     0.1007
     12 C         -0.635345   -0.48017   5.833157 C.ar        1 UNL1     0.1389
     13 C         -0.605428   0.572413   4.899024 C.ar        1 UNL1     0.0229
     14 C         0.464288   -2.064107   7.381481 C.2        1 UNL1     0.1740
     15 C         -0.90547   -2.30755   7.94366 C.3        1 UNL1     0.0520
     16 C         -1.911803   -2.249875   6.802641 C.3        1 UNL1     0.1322
     17 O         -1.883895   -0.956723   6.159174 O.3        1 UNL1     -0.4828
     18 C         -1.823184   -3.438364   5.842242 C.ar        1 UNL1     -0.0067
     19 C         -3.008278   -4.062552   5.401614 C.ar        1 UNL1     -0.0516
     20 C         -2.961262   -5.181063   4.560969 C.ar        1 UNL1     -0.0198
     21 C         -1.737997   -5.688291   4.160757 C.ar        1 UNL1     0.1169
     22 C         -0.554431   -5.075266   4.550898 C.ar        1 UNL1     -0.0198
     23 C         -0.601613   -3.945628   5.376578 C.ar        1 UNL1     -0.0516
     24 O         -1.730769   -6.801576   3.372755 O.3        1 UNL1     -0.5068
     25 O         1.443145   -2.653882   7.831469 O.2        1 UNL1     -0.2917
     26 O         2.953468   -1.042268   6.285457 O.3        1 UNL1     -0.5058
     27 O         -0.081466   -0.669371   2.468854 O.3        1 UNL1     -0.3648
     28 O         -1.882434   0.753328   -0.31586 O.3        1 UNL1     -0.3841
     29 O         1.360052   2.030023   0.525081 O.3        1 UNL1     -0.3863
     30 O         -1.976204   3.440383   1.141835 O.3        1 UNL1     -0.3829
     31 H         -1.937936   -0.473218   1.766691 H        1 UNL1     0.0937
     32 H         0.0   0.0   0.0 H        1 UNL1     0.0671
     33 H         -0.296372   2.564279   -0.501842 H        1 UNL1     0.0649
     34 H         -0.044997   3.936315   1.628069 H        1 UNL1     0.0683
     35 H         -1.319337   3.054544   3.528803 H        1 UNL1     0.1085
     36 H         2.770123   0.891657   4.632089 H        1 UNL1     0.0691
     37 H         -1.543957   0.970803   4.519627 H        1 UNL1     0.0691
     38 H         -1.103172   -1.525548   8.684548 H        1 UNL1     0.0385
     39 H         -0.916141   -3.275295   8.456627 H        1 UNL1     0.0385
     40 H         -2.912853   -2.312155   7.250456 H        1 UNL1     0.0789
     41 H         -3.980724   -3.6891   5.709078 H        1 UNL1     0.0623
     42 H         -3.881807   -5.660722   4.23765 H        1 UNL1     0.0654
     43 H         0.408541   -5.455167   4.2311 H        1 UNL1     0.0654
     44 H         0.34217   -3.485757   5.653414 H        1 UNL1     0.0623
     45 H         -2.408235   -6.695209   2.685411 H        1 UNL1     0.2921
     46 H         2.78852   -1.701775   6.977739 H        1 UNL1     0.2922
     47 H         0.01404   -0.48254   3.413223 H        1 UNL1     0.2126
     48 H         -2.477337   1.400927   0.10892 H        1 UNL1     0.2101
     49 H         1.644361   1.809954   1.426487 H        1 UNL1     0.2100
     50 H         -1.886935   4.016392   0.354461 H        1 UNL1     0.2102
@<TRIPOS>BOND
     1     1     2    1
     2     1     6    1
     3     2     3    1
     4     3     4    1
     5     3    29    1
     6     3    33    1
     7     4     5    1
     8     5     6    1
     9     5     7    1
    10     5    35    1
    11     7     8    1
    12     8     9   ar
    13     8    13   ar
    14     9    10   ar
    15     9    36    1
    16    10    11   ar
    17    10    26    1
    18    11    12   ar
    19    11    14    1
    20    12    13   ar
    21    12    17    1
    22    13    37    1
    23    14    15    1
    24    14    25    2
    25    15    16    1
    26    15    38    1
    27    15    39    1
    28    16    17    1
    29    16    18    1
    30    16    40    1
    31    18    19   ar
    32    18    23   ar
    33    19    20   ar
    34    19    41    1
    35    20    21   ar
    36    20    42    1
    37    21    22   ar
    38    21    24    1
    39    22    23   ar
    40    22    43    1
    41    23    44    1
    42    24    45    1
    43    26    46    1
    44    27    47    1
    45    28    48    1
    46    29    49    1
    47    30    50    1
    48     1    31    1
    49     1    27    1
    50     2    32    1
    51     2    28    1
    52     4    34    1
    53     4    30    1
