@<TRIPOS>MOLECULE
*****
 50 53 0 0 0
SMALL
GASTEIGER

@<TRIPOS>ATOM
     1 C         -0.206746   -0.849156   -2.001748 C.3        1 UNL1     0.1889
     2 C         0.146067   -0.968259   -0.494672 C.3        1 UNL1     0.1342
     3 C         1.570081   -1.468163   -0.207016 C.3        1 UNL1     0.1174
     4 C         2.057485   -2.494203   -1.233075 C.3        1 UNL1     0.1456
     5 C         1.775945   -2.058789   -2.682735 C.3        1 UNL1     0.2326
     6 O         0.381178   -1.819123   -2.856093 O.3        1 UNL1     -0.3076
     7 O         2.597461   -0.961558   -3.121501 O.3        1 UNL1     -0.4605
     8 C         2.145744   0.303655   -2.791777 C.ar        1 UNL1     0.1310
     9 C         1.33088   1.108172   -3.59555 C.ar        1 UNL1     0.0226
     10 C         0.911032   2.372201   -3.164433 C.ar        1 UNL1     0.1343
     11 C         1.276702   2.852968   -1.907854 C.ar        1 UNL1     0.1007
     12 C         2.123824   2.076001   -1.113191 C.ar        1 UNL1     0.1389
     13 C         2.548004   0.806182   -1.548004 C.ar        1 UNL1     0.0229
     14 C         0.793161   4.144775   -1.367877 C.2        1 UNL1     0.1740
     15 C         1.101708   4.400318   0.078168 C.3        1 UNL1     0.0520
     16 C         2.515203   3.911517   0.362885 C.3        1 UNL1     0.1322
     17 O         2.632655   2.497056   0.093486 O.3        1 UNL1     -0.4828
     18 C         3.605873   4.772278   -0.279183 C.ar        1 UNL1     -0.0067
     19 C         3.242989   5.940705   -0.980117 C.ar        1 UNL1     -0.0516
     20 C         4.210863   6.724783   -1.619183 C.ar        1 UNL1     -0.0198
     21 C         5.541106   6.348005   -1.570998 C.ar        1 UNL1     0.1169
     22 C         5.933421   5.221024   -0.860476 C.ar        1 UNL1     -0.0198
     23 C         4.967909   4.446901   -0.205818 C.ar        1 UNL1     -0.0516
     24 O         6.450852   7.11554   -2.23707 O.3        1 UNL1     -0.5068
     25 O         0.113142   4.936271   -2.015637 O.2        1 UNL1     -0.2917
     26 O         0.118215   3.107468   -3.996542 O.3        1 UNL1     -0.5058
     27 O         -0.053005   0.463998   -2.516313 O.3        1 UNL1     -0.3648
     28 O         -0.766405   -1.900051   0.115135 O.3        1 UNL1     -0.3841
     29 O         2.47121   -0.370032   -0.051421 O.3        1 UNL1     -0.3863
     30 O         1.398111   -3.756102   -0.991155 O.3        1 UNL1     -0.3829
     31 H         -1.280401   -1.048743   -2.088406 H        1 UNL1     0.0937
     32 H         0.0   0.0   0.0 H        1 UNL1     0.0671
     33 H         1.556951   -1.975208   0.767895 H        1 UNL1     0.0649
     34 H         3.132547   -2.66535   -1.109176 H        1 UNL1     0.0683
     35 H         2.023501   -2.946396   -3.278342 H        1 UNL1     0.1085
     36 H         0.966731   0.76844   -4.558928 H        1 UNL1     0.0691
     37 H         3.208181   0.221391   -0.911075 H        1 UNL1     0.0691
     38 H         0.366111   3.851425   0.67578 H        1 UNL1     0.0385
     39 H         0.983227   5.469014   0.287044 H        1 UNL1     0.0385
     40 H         2.675956   3.998995   1.445949 H        1 UNL1     0.0789
     41 H         2.20445   6.252886   -1.040364 H        1 UNL1     0.0623
     42 H         3.917064   7.617033   -2.166524 H        1 UNL1     0.0654
     43 H         6.974169   4.925177   -0.803657 H        1 UNL1     0.0654
     44 H         5.311216   3.57891   0.348779 H        1 UNL1     0.0623
     45 H         5.974389   7.673288   -2.873165 H        1 UNL1     0.2921
     46 H         -0.532775   3.599696   -3.471817 H        1 UNL1     0.2922
     47 H         0.004033   1.102838   -1.792097 H        1 UNL1     0.2126
     48 H         -1.590729   -1.866985   -0.407483 H        1 UNL1     0.2101
     49 H         3.137425   -0.38732   -0.756866 H        1 UNL1     0.2100
     50 H         0.709349   -3.872933   -1.677937 H        1 UNL1     0.2102
@<TRIPOS>BOND
     1     1     2    1
     2     1     6    1
     3     2     3    1
     4     3     4    1
     5     3    29    1
     6     3    33    1
     7     4     5    1
     8     5     6    1
     9     5     7    1
    10     5    35    1
    11     7     8    1
    12     8     9   ar
    13     8    13   ar
    14     9    10   ar
    15     9    36    1
    16    10    11   ar
    17    10    26    1
    18    11    12   ar
    19    11    14    1
    20    12    13   ar
    21    12    17    1
    22    13    37    1
    23    14    15    1
    24    14    25    2
    25    15    16    1
    26    15    38    1
    27    15    39    1
    28    16    17    1
    29    16    18    1
    30    16    40    1
    31    18    19   ar
    32    18    23   ar
    33    19    20   ar
    34    19    41    1
    35    20    21   ar
    36    20    42    1
    37    21    22   ar
    38    21    24    1
    39    22    23   ar
    40    22    43    1
    41    23    44    1
    42    24    45    1
    43    26    46    1
    44    27    47    1
    45    28    48    1
    46    29    49    1
    47    30    50    1
    48     1    31    1
    49     1    27    1
    50     2    32    1
    51     2    28    1
    52     4    34    1
    53     4    30    1
