@<TRIPOS>MOLECULE
*****
 50 53 0 0 0
SMALL
GASTEIGER

@<TRIPOS>ATOM
     1 C         -1.071608   -1.901581   -0.080314 C.3        1 UNL1     0.1889
     2 C         -0.583658   -0.577587   -0.727528 C.3        1 UNL1     0.1342
     3 C         -1.702937   0.31136   -1.290959 C.3        1 UNL1     0.1174
     4 C         -2.8616   -0.496048   -1.881474 C.3        1 UNL1     0.1456
     5 C         -3.312011   -1.643387   -0.958918 C.3        1 UNL1     0.2326
     6 O         -2.209773   -2.503458   -0.679246 O.3        1 UNL1     -0.3076
     7 O         -3.992767   -1.1924   0.226199 O.3        1 UNL1     -0.4605
     8 C         -3.569677   0.018248   0.744713 C.ar        1 UNL1     0.1310
     9 C         -4.061017   0.61684   1.909862 C.ar        1 UNL1     0.0226
     10 C         -3.554407   1.840394   2.363915 C.ar        1 UNL1     0.1343
     11 C         -2.526554   2.484013   1.676082 C.ar        1 UNL1     0.1007
     12 C         -2.056125   1.916425   0.488932 C.ar        1 UNL1     0.1389
     13 C         -2.567517   0.687459   0.031165 C.ar        1 UNL1     0.0229
     14 C         -1.896647   3.735718   2.156294 C.2        1 UNL1     0.1740
     15 C         -0.663499   4.166752   1.417982 C.3        1 UNL1     0.0520
     16 C         -0.880376   3.918453   -0.06838 C.3        1 UNL1     0.1322
     17 O         -1.123462   2.517536   -0.324132 O.3        1 UNL1     -0.4828
     18 C         -1.897094   4.866083   -0.709476 C.ar        1 UNL1     -0.0067
     19 C         -1.441346   6.018008   -1.382957 C.ar        1 UNL1     -0.0516
     20 C         -2.346178   6.92998   -1.93933 C.ar        1 UNL1     -0.0198
     21 C         -3.706301   6.705656   -1.822835 C.ar        1 UNL1     0.1169
     22 C         -4.185154   5.563336   -1.194627 C.ar        1 UNL1     -0.0198
     23 C         -3.280227   4.641823   -0.654279 C.ar        1 UNL1     -0.0516
     24 O         -4.557766   7.635001   -2.344106 O.3        1 UNL1     -0.5068
     25 O         -2.289449   4.355685   3.141095 O.2        1 UNL1     -0.2917
     26 O         -4.077573   2.371377   3.506692 O.3        1 UNL1     -0.5058
     27 O         -1.199865   -1.827459   1.330658 O.3        1 UNL1     -0.3648
     28 O         0.297052   -0.901152   -1.819481 O.3        1 UNL1     -0.3841
     29 O         -2.132479   1.264408   -0.316626 O.3        1 UNL1     -0.3863
     30 O         -2.45281   -1.053389   -3.149524 O.3        1 UNL1     -0.3829
     31 H         -0.277738   -2.639267   -0.240532 H        1 UNL1     0.0937
     32 H         0.0   0.0   0.0 H        1 UNL1     0.0671
     33 H         -1.278181   0.905104   -2.112403 H        1 UNL1     0.0649
     34 H         -3.713549   0.16336   -2.080884 H        1 UNL1     0.0683
     35 H         -4.016008   -2.217083   -1.574662 H        1 UNL1     0.1085
     36 H         -4.820401   0.139566   2.519506 H        1 UNL1     0.0691
     37 H         -2.185159   0.267165   -0.896546 H        1 UNL1     0.0691
     38 H         0.174904   3.57407   1.799211 H        1 UNL1     0.0385
     39 H         -0.464325   5.221362   1.636857 H        1 UNL1     0.0385
     40 H         0.071824   4.128655   -0.573999 H        1 UNL1     0.0789
     41 H         -0.378865   6.221431   -1.479927 H        1 UNL1     0.0623
     42 H         -1.982548   7.82061   -2.44585 H        1 UNL1     0.0654
     43 H         -5.247991   5.370242   -1.110949 H        1 UNL1     0.0654
     44 H         -3.689184   3.755024   -0.179742 H        1 UNL1     0.0623
     45 H         -5.343948   7.683257   -1.776386 H        1 UNL1     0.2921
     46 H         -4.99636   2.63963   3.347684 H        1 UNL1     0.2922
     47 H         -1.864229   -2.458909   1.640093 H        1 UNL1     0.2126
     48 H         1.015724   -0.240078   -1.804485 H        1 UNL1     0.2101
     49 H         -3.096858   1.365307   -0.356453 H        1 UNL1     0.2100
     50 H         -1.473562   -1.074529   -3.167933 H        1 UNL1     0.2102
@<TRIPOS>BOND
     1     1     2    1
     2     1     6    1
     3     2     3    1
     4     3     4    1
     5     3    29    1
     6     3    33    1
     7     4     5    1
     8     5     6    1
     9     5     7    1
    10     5    35    1
    11     7     8    1
    12     8     9   ar
    13     8    13   ar
    14     9    10   ar
    15     9    36    1
    16    10    11   ar
    17    10    26    1
    18    11    12   ar
    19    11    14    1
    20    12    13   ar
    21    12    17    1
    22    13    37    1
    23    14    15    1
    24    14    25    2
    25    15    16    1
    26    15    38    1
    27    15    39    1
    28    16    17    1
    29    16    18    1
    30    16    40    1
    31    18    19   ar
    32    18    23   ar
    33    19    20   ar
    34    19    41    1
    35    20    21   ar
    36    20    42    1
    37    21    22   ar
    38    21    24    1
    39    22    23   ar
    40    22    43    1
    41    23    44    1
    42    24    45    1
    43    26    46    1
    44    27    47    1
    45    28    48    1
    46    29    49    1
    47    30    50    1
    48     1    31    1
    49     1    27    1
    50     2    32    1
    51     2    28    1
    52     4    34    1
    53     4    30    1
