@<TRIPOS>MOLECULE
*****
 50 53 0 0 0
SMALL
GASTEIGER

@<TRIPOS>ATOM
     1 C         -0.320489   -1.322519   1.708518 C.3        1 UNL1     0.1889
     2 C         -0.456406   -0.977137   0.201143 C.3        1 UNL1     0.1342
     3 C         -1.898497   -0.975252   -0.328794 C.3        1 UNL1     0.1174
     4 C         -2.777205   -2.036585   0.33796 C.3        1 UNL1     0.1456
     5 C         -2.621964   -2.054147   1.869611 C.3        1 UNL1     0.2326
     6 O         -1.255048   -2.262825   2.217262 O.3        1 UNL1     -0.3076
     7 O         -3.201976   -0.907482   2.517735 O.3        1 UNL1     -0.4605
     8 C         -3.707374   -1.120089   3.787735 C.ar        1 UNL1     0.1310
     9 C         -4.51653   -2.196093   4.168238 C.ar        1 UNL1     0.0226
     10 C         -4.965494   -2.333076   5.487165 C.ar        1 UNL1     0.1343
     11 C         -4.596188   -1.409272   6.463914 C.ar        1 UNL1     0.1007
     12 C         -3.822364   -0.308357   6.087129 C.ar        1 UNL1     0.1389
     13 C         -3.373248   -0.169426   4.760319 C.ar        1 UNL1     0.0229
     14 C         -4.972562   -1.55079   7.889561 C.2        1 UNL1     0.1740
     15 C         -4.306898   -0.594303   8.83485 C.3        1 UNL1     0.0520
     16 C         -4.247218   0.775033   8.172042 C.3        1 UNL1     0.1322
     17 O         -3.491278   0.716984   6.942304 O.3        1 UNL1     -0.4828
     18 C         -5.610795   1.458912   8.046779 C.ar        1 UNL1     -0.0067
     19 C         -5.996154   2.01383   6.809129 C.ar        1 UNL1     -0.0516
     20 C         -7.21572   2.687609   6.672587 C.ar        1 UNL1     -0.0198
     21 C         -8.053541   2.819323   7.765535 C.ar        1 UNL1     0.1169
     22 C         -7.716945   2.254666   8.988934 C.ar        1 UNL1     -0.0198
     23 C         -6.505839   1.564866   9.121052 C.ar        1 UNL1     -0.0516
     24 O         -9.215722   3.514798   7.604133 O.3        1 UNL1     -0.5068
     25 O         -5.715178   -2.43494   8.308231 O.2        1 UNL1     -0.2917
     26 O         -5.752814   -3.40463   5.792915 O.3        1 UNL1     -0.5058
     27 O         -0.219789   -0.179935   2.543472 O.3        1 UNL1     -0.3648
     28 O         0.277976   -1.954807   -0.558824 O.3        1 UNL1     -0.3841
     29 O         -2.463273   0.33549   -0.257255 O.3        1 UNL1     -0.3863
     30 O         -2.423407   -3.337717   -0.179315 O.3        1 UNL1     -0.3829
     31 H         0.643365   -1.829345   1.82765 H        1 UNL1     0.0937
     32 H         0.0   0.0   0.0 H        1 UNL1     0.0671
     33 H         -1.862555   -1.219414   -1.399688 H        1 UNL1     0.0649
     34 H         -3.828912   -1.86541   0.082986 H        1 UNL1     0.0683
     35 H         -3.170846   -2.951778   2.180843 H        1 UNL1     0.1085
     36 H         -4.79213   -2.977622   3.468683 H        1 UNL1     0.0691
     37 H         -2.772911   0.697319   4.492286 H        1 UNL1     0.0691
     38 H         -3.30179   -0.977629   9.040633 H        1 UNL1     0.0385
     39 H         -4.864882   -0.574208   9.777203 H        1 UNL1     0.0385
     40 H         -3.654479   1.426698   8.828178 H        1 UNL1     0.0789
     41 H         -5.352021   1.931881   5.938481 H        1 UNL1     0.0623
     42 H         -7.496207   3.121478   5.71598 H        1 UNL1     0.0654
     43 H         -8.372524   2.338872   9.847443 H        1 UNL1     0.0654
     44 H         -6.279738   1.127249   10.088634 H        1 UNL1     0.0623
     45 H         -8.995677   4.422129   7.337586 H        1 UNL1     0.2921
     46 H         -5.343563   -3.912241   6.511425 H        1 UNL1     0.2922
     47 H         0.252763   0.528999   2.08525 H        1 UNL1     0.2126
     48 H         1.211025   -1.882868   -0.279582 H        1 UNL1     0.2101
     49 H         -2.02915   0.917484   -0.901161 H        1 UNL1     0.2100
     50 H         -2.658738   -3.358391   -1.130054 H        1 UNL1     0.2102
@<TRIPOS>BOND
     1     1     2    1
     2     1     6    1
     3     2     3    1
     4     3     4    1
     5     3    29    1
     6     3    33    1
     7     4     5    1
     8     5     6    1
     9     5     7    1
    10     5    35    1
    11     7     8    1
    12     8     9   ar
    13     8    13   ar
    14     9    10   ar
    15     9    36    1
    16    10    11   ar
    17    10    26    1
    18    11    12   ar
    19    11    14    1
    20    12    13   ar
    21    12    17    1
    22    13    37    1
    23    14    15    1
    24    14    25    2
    25    15    16    1
    26    15    38    1
    27    15    39    1
    28    16    17    1
    29    16    18    1
    30    16    40    1
    31    18    19   ar
    32    18    23   ar
    33    19    20   ar
    34    19    41    1
    35    20    21   ar
    36    20    42    1
    37    21    22   ar
    38    21    24    1
    39    22    23   ar
    40    22    43    1
    41    23    44    1
    42    24    45    1
    43    26    46    1
    44    27    47    1
    45    28    48    1
    46    29    49    1
    47    30    50    1
    48     1    31    1
    49     1    27    1
    50     2    32    1
    51     2    28    1
    52     4    34    1
    53     4    30    1
