@<TRIPOS>MOLECULE
*****
 50 53 0 0 0
SMALL
GASTEIGER

@<TRIPOS>ATOM
     1 C         -0.338569   -1.331333   1.698154 C.3        1 UNL1     0.1889
     2 C         -0.465941   -0.974326   0.192743 C.3        1 UNL1     0.1342
     3 C         -1.906043   -0.955705   -0.342256 C.3        1 UNL1     0.1174
     4 C         -2.796701   -2.013611   0.314008 C.3        1 UNL1     0.1456
     5 C         -2.647128   -2.043162   1.846039 C.3        1 UNL1     0.2326
     6 O         -1.283412   -2.266621   2.197056 O.3        1 UNL1     -0.3076
     7 O         -3.219075   -0.895792   2.500057 O.3        1 UNL1     -0.4605
     8 C         -3.731358   -1.112683   3.766569 C.ar        1 UNL1     0.1310
     9 C         -4.55187   -2.183824   4.13632 C.ar        1 UNL1     0.0226
     10 C         -5.007217   -2.325963   5.452511 C.ar        1 UNL1     0.1343
     11 C         -4.633227   -1.41253   6.4372 C.ar        1 UNL1     0.1007
     12 C         -3.84783   -0.31618   6.071208 C.ar        1 UNL1     0.1389
     13 C         -3.392282   -0.17204   4.747149 C.ar        1 UNL1     0.0229
     14 C         -5.016446   -1.560629   7.860353 C.2        1 UNL1     0.1740
     15 C         -4.345688   -0.617032   8.814953 C.3        1 UNL1     0.0520
     16 C         -4.270811   0.75634   8.162114 C.3        1 UNL1     0.1322
     17 O         -3.510649   0.699993   6.934902 O.3        1 UNL1     -0.4828
     18 C         -5.627531   1.453658   8.036479 C.ar        1 UNL1     -0.0067
     19 C         -6.002141   2.022471   6.801841 C.ar        1 UNL1     -0.0516
     20 C         -7.214897   2.70847   6.665495 C.ar        1 UNL1     -0.0198
     21 C         -8.056502   2.83861   7.75572 C.ar        1 UNL1     0.1169
     22 C         -7.730676   2.260624   8.975806 C.ar        1 UNL1     -0.0198
     23 C         -6.526505   1.558719   9.107554 C.ar        1 UNL1     -0.0516
     24 O         -9.211565   3.545991   7.594957 O.3        1 UNL1     -0.5068
     25 O         -5.768803   -2.440814   8.269888 O.2        1 UNL1     -0.2917
     26 O         -5.805563   -3.392328   5.747627 O.3        1 UNL1     -0.5058
     27 O         -0.230542   -0.195506   2.54137 O.3        1 UNL1     -0.3648
     28 O         0.262297   -1.953339   -0.571397 O.3        1 UNL1     -0.3841
     29 O         -2.459199   0.359577   -0.263613 O.3        1 UNL1     -0.3863
     30 O         -2.452824   -3.314291   -0.211035 O.3        1 UNL1     -0.3829
     31 H         0.620229   -1.847688   1.817166 H        1 UNL1     0.0937
     32 H         0.0   0.0   0.0 H        1 UNL1     0.0671
     33 H         -1.868463   -1.192778   -1.414685 H        1 UNL1     0.0649
     34 H         -3.845895   -1.831151   0.056519 H        1 UNL1     0.0683
     35 H         -3.205217   -2.93791   2.149093 H        1 UNL1     0.1085
     36 H         -4.831929   -2.957813   3.430184 H        1 UNL1     0.0691
     37 H         -2.782945   0.690992   4.487578 H        1 UNL1     0.0691
     38 H         -3.344965   -1.011074   9.021861 H        1 UNL1     0.0385
     39 H         -4.907135   -0.598437   9.755277 H        1 UNL1     0.0385
     40 H         -3.674657   1.39785   8.825125 H        1 UNL1     0.0789
     41 H         -5.354783   1.941985   5.933451 H        1 UNL1     0.0623
     42 H         -7.48703   3.15292   5.711336 H        1 UNL1     0.0654
     43 H         -8.389403   2.343572   9.832023 H        1 UNL1     0.0654
     44 H         -6.308838   1.110925   10.07241 H        1 UNL1     0.0623
     45 H         -8.982033   4.453795   7.338203 H        1 UNL1     0.2921
     46 H         -5.404456   -3.908032   6.464966 H        1 UNL1     0.2922
     47 H         0.51463   0.356424   2.265775 H        1 UNL1     0.2126
     48 H         1.195072   -1.891303   -0.288881 H        1 UNL1     0.2101
     49 H         -2.017581   0.942025   -0.901987 H        1 UNL1     0.2100
     50 H         -2.684916   -3.326261   -1.162719 H        1 UNL1     0.2102
@<TRIPOS>BOND
     1     1     2    1
     2     1     6    1
     3     2     3    1
     4     3     4    1
     5     3    29    1
     6     3    33    1
     7     4     5    1
     8     5     6    1
     9     5     7    1
    10     5    35    1
    11     7     8    1
    12     8     9   ar
    13     8    13   ar
    14     9    10   ar
    15     9    36    1
    16    10    11   ar
    17    10    26    1
    18    11    12   ar
    19    11    14    1
    20    12    13   ar
    21    12    17    1
    22    13    37    1
    23    14    15    1
    24    14    25    2
    25    15    16    1
    26    15    38    1
    27    15    39    1
    28    16    17    1
    29    16    18    1
    30    16    40    1
    31    18    19   ar
    32    18    23   ar
    33    19    20   ar
    34    19    41    1
    35    20    21   ar
    36    20    42    1
    37    21    22   ar
    38    21    24    1
    39    22    23   ar
    40    22    43    1
    41    23    44    1
    42    24    45    1
    43    26    46    1
    44    27    47    1
    45    28    48    1
    46    29    49    1
    47    30    50    1
    48     1    31    1
    49     1    27    1
    50     2    32    1
    51     2    28    1
    52     4    34    1
    53     4    30    1
