@<TRIPOS>MOLECULE
*****
 50 53 0 0 0
SMALL
GASTEIGER

@<TRIPOS>ATOM
     1 C         -1.880385   0.213852   1.090515 C.3        1 UNL1     0.1889
     2 C         -0.355207   0.456235   0.93233 C.3        1 UNL1     0.1342
     3 C         0.500409   -0.058663   2.09992 C.3        1 UNL1     0.1174
     4 C         -0.201327   0.074403   3.453794 C.3        1 UNL1     0.1456
     5 C         -1.657921   -0.422782   3.414998 C.3        1 UNL1     0.2326
     6 O         -2.386864   0.285639   2.415174 O.3        1 UNL1     -0.3076
     7 O         -1.772639   -1.852195   3.292764 O.3        1 UNL1     -0.4605
     8 C         -0.837082   -2.597098   3.98802 C.ar        1 UNL1     0.1310
     9 C         0.391608   -3.032713   3.480221 C.ar        1 UNL1     0.0226
     10 C         1.281173   -3.769786   4.27098 C.ar        1 UNL1     0.1343
     11 C         0.973597   -4.069003   5.59752 C.ar        1 UNL1     0.1007
     12 C         -0.268016   -3.674758   6.10324 C.ar        1 UNL1     0.1389
     13 C         -1.163419   -2.935925   5.307118 C.ar        1 UNL1     0.0229
     14 C         1.911864   -4.771911   6.502908 C.2        1 UNL1     0.1740
     15 C         1.511864   -4.811988   7.948571 C.3        1 UNL1     0.0520
     16 C         0.01199   -5.061443   8.026726 C.3        1 UNL1     0.1322
     17 O         -0.718388   -4.008693   7.359392 O.3        1 UNL1     -0.4828
     18 C         -0.399342   -6.477468   7.616356 C.ar        1 UNL1     -0.0067
     19 C         -1.532299   -7.069416   8.21152 C.ar        1 UNL1     -0.0516
     20 C         -1.908351   -8.380024   7.893945 C.ar        1 UNL1     -0.0198
     21 C         -1.157164   -9.110067   6.990296 C.ar        1 UNL1     0.1169
     22 C         -0.0557   -8.543037   6.362527 C.ar        1 UNL1     -0.0198
     23 C         0.309815   -7.226103   6.666073 C.ar        1 UNL1     -0.0516
     24 O         -1.531886   -10.396313   6.734257 O.3        1 UNL1     -0.5068
     25 O         2.990654   -5.229886   6.135544 O.2        1 UNL1     -0.2917
     26 O         2.462789   -4.165608   3.715379 O.3        1 UNL1     -0.5058
     27 O         -2.341543   -0.945721   0.415598 O.3        1 UNL1     -0.3648
     28 O         -0.127193   1.873824   0.8267 O.3        1 UNL1     -0.3841
     29 O         0.961349   -1.386814   1.843638 O.3        1 UNL1     -0.3863
     30 O         -0.194918   1.461321   3.856417 O.3        1 UNL1     -0.3829
     31 H         -2.383415   1.041636   0.578838 H        1 UNL1     0.0937
     32 H         0.0   0.0   0.0 H        1 UNL1     0.0671
     33 H         1.407102   0.560326   2.149722 H        1 UNL1     0.0649
     34 H         0.351095   -0.483723   4.217814 H        1 UNL1     0.0683
     35 H         -2.06786   -0.116649   4.385622 H        1 UNL1     0.1085
     36 H         0.713281   -2.784579   2.474697 H        1 UNL1     0.0691
     37 H         -2.124246   -2.641859   5.724046 H        1 UNL1     0.0691
     38 H         1.775175   -3.845758   8.391959 H        1 UNL1     0.0385
     39 H         2.088321   -5.591033   8.459027 H        1 UNL1     0.0385
     40 H         -0.27689   -4.969387   9.08247 H        1 UNL1     0.0789
     41 H         -2.133172   -6.520467   8.930725 H        1 UNL1     0.0623
     42 H         -2.777122   -8.829464   8.368553 H        1 UNL1     0.0654
     43 H         0.530778   -9.100631   5.642081 H        1 UNL1     0.0654
     44 H         1.16967   -6.811331   6.148911 H        1 UNL1     0.0623
     45 H         -2.297627   -10.60945   7.291867 H        1 UNL1     0.2921
     46 H         2.335182   -5.006639   3.248695 H        1 UNL1     0.2922
     47 H         -3.216421   -1.197752   0.742596 H        1 UNL1     0.2126
     48 H         -0.826057   2.309402   1.351669 H        1 UNL1     0.2101
     49 H         1.913003   -1.375001   1.653876 H        1 UNL1     0.2100
     50 H         -1.105627   1.701161   4.126229 H        1 UNL1     0.2102
@<TRIPOS>BOND
     1     1     2    1
     2     1     6    1
     3     2     3    1
     4     3     4    1
     5     3    29    1
     6     3    33    1
     7     4     5    1
     8     5     6    1
     9     5     7    1
    10     5    35    1
    11     7     8    1
    12     8     9   ar
    13     8    13   ar
    14     9    10   ar
    15     9    36    1
    16    10    11   ar
    17    10    26    1
    18    11    12   ar
    19    11    14    1
    20    12    13   ar
    21    12    17    1
    22    13    37    1
    23    14    15    1
    24    14    25    2
    25    15    16    1
    26    15    38    1
    27    15    39    1
    28    16    17    1
    29    16    18    1
    30    16    40    1
    31    18    19   ar
    32    18    23   ar
    33    19    20   ar
    34    19    41    1
    35    20    21   ar
    36    20    42    1
    37    21    22   ar
    38    21    24    1
    39    22    23   ar
    40    22    43    1
    41    23    44    1
    42    24    45    1
    43    26    46    1
    44    27    47    1
    45    28    48    1
    46    29    49    1
    47    30    50    1
    48     1    31    1
    49     1    27    1
    50     2    32    1
    51     2    28    1
    52     4    34    1
    53     4    30    1
