@<TRIPOS>MOLECULE
*****
 50 53 0 0 0
SMALL
GASTEIGER

@<TRIPOS>ATOM
     1 C         -1.272018   0.026116   -1.775413 C.3        1 UNL1     0.1889
     2 C         0.114842   0.120807   -1.084333 C.3        1 UNL1     0.1342
     3 C         0.883729   1.420995   -1.365031 C.3        1 UNL1     0.1174
     4 C         0.649577   1.955243   -2.780259 C.3        1 UNL1     0.1456
     5 C         -0.839184   1.954448   -3.172627 C.3        1 UNL1     0.2326
     6 O         -1.372667   0.637649   -3.053025 O.3        1 UNL1     -0.3076
     7 O         -1.61621   2.945251   -2.475587 O.3        1 UNL1     -0.4605
     8 C         -1.311962   4.2644   -2.759851 C.ar        1 UNL1     0.1310
     9 C         -1.085158   4.786442   -4.03787 C.ar        1 UNL1     0.0226
     10 C         -0.799587   6.144155   -4.224863 C.ar        1 UNL1     0.1343
     11 C         -0.757345   7.018271   -3.139516 C.ar        1 UNL1     0.1007
     12 C         -0.941598   6.501026   -1.85449 C.ar        1 UNL1     0.1389
     13 C         -1.22611   5.135325   -1.666489 C.ar        1 UNL1     0.0229
     14 C         -0.543085   8.476445   -3.287761 C.2        1 UNL1     0.1740
     15 C         -0.749811   9.292648   -2.045735 C.3        1 UNL1     0.0520
     16 C         -0.16409   8.53028   -0.865192 C.3        1 UNL1     0.1322
     17 O         -0.814819   7.250113   -0.707728 O.3        1 UNL1     -0.4828
     18 C         1.365243   8.468255   -0.869377 C.ar        1 UNL1     -0.0067
     19 C         2.104703   9.580577   -0.417544 C.ar        1 UNL1     -0.0516
     20 C         3.504243   9.574932   -0.452446 C.ar        1 UNL1     -0.0198
     21 C         4.174417   8.468408   -0.942649 C.ar        1 UNL1     0.1169
     22 C         3.474878   7.344876   -1.363555 C.ar        1 UNL1     -0.0198
     23 C         2.075826   7.343109   -1.311546 C.ar        1 UNL1     -0.0516
     24 O         5.536554   8.513959   -0.996572 O.3        1 UNL1     -0.5068
     25 O         -0.291628   9.017155   -4.361486 O.2        1 UNL1     -0.2917
     26 O         -0.587222   6.589781   -5.496831 O.3        1 UNL1     -0.5058
     27 O         -2.350708   0.395896   -0.931329 O.3        1 UNL1     -0.3648
     28 O         0.931947   -0.969168   -1.550166 O.3        1 UNL1     -0.3841
     29 O         0.61762   2.395696   -0.354449 O.3        1 UNL1     -0.3863
     30 O         1.378101   1.13768   -3.721818 O.3        1 UNL1     -0.3829
     31 H         -1.445233   -1.035063   -1.985112 H        1 UNL1     0.0937
     32 H         0.0   0.0   0.0 H        1 UNL1     0.0671
     33 H         1.957126   1.200375   -1.282173 H        1 UNL1     0.0649
     34 H         1.045643   2.973171   -2.866025 H        1 UNL1     0.0683
     35 H         -0.830996   2.199342   -4.242131 H        1 UNL1     0.1085
     36 H         -1.159047   4.169938   -4.927018 H        1 UNL1     0.0691
     37 H         -1.364406   4.757266   -0.655827 H        1 UNL1     0.0691
     38 H         -1.827839   9.442441   -1.923496 H        1 UNL1     0.0385
     39 H         -0.28108   10.273655   -2.178758 H        1 UNL1     0.0385
     40 H         -0.429854   9.086986   0.043635 H        1 UNL1     0.0789
     41 H         1.601954   10.464815   -0.036733 H        1 UNL1     0.0623
     42 H         4.062851   10.443415   -0.112291 H        1 UNL1     0.0654
     43 H         3.990126   6.467199   -1.735191 H        1 UNL1     0.0654
     44 H         1.56194   6.44431   -1.638543 H        1 UNL1     0.0623
     45 H         5.800029   8.74741   -1.901447 H        1 UNL1     0.2921
     46 H         0.148566   6.097217   -5.893578 H        1 UNL1     0.2922
     47 H         -2.735459   1.232828   -1.226914 H        1 UNL1     0.2126
     48 H         1.258513   -0.715651   -2.434935 H        1 UNL1     0.2101
     49 H         1.362465   3.014256   -0.288253 H        1 UNL1     0.2100
     50 H         1.334289   0.20932   -3.412075 H        1 UNL1     0.2102
@<TRIPOS>BOND
     1     1     2    1
     2     1     6    1
     3     2     3    1
     4     3     4    1
     5     3    29    1
     6     3    33    1
     7     4     5    1
     8     5     6    1
     9     5     7    1
    10     5    35    1
    11     7     8    1
    12     8     9   ar
    13     8    13   ar
    14     9    10   ar
    15     9    36    1
    16    10    11   ar
    17    10    26    1
    18    11    12   ar
    19    11    14    1
    20    12    13   ar
    21    12    17    1
    22    13    37    1
    23    14    15    1
    24    14    25    2
    25    15    16    1
    26    15    38    1
    27    15    39    1
    28    16    17    1
    29    16    18    1
    30    16    40    1
    31    18    19   ar
    32    18    23   ar
    33    19    20   ar
    34    19    41    1
    35    20    21   ar
    36    20    42    1
    37    21    22   ar
    38    21    24    1
    39    22    23   ar
    40    22    43    1
    41    23    44    1
    42    24    45    1
    43    26    46    1
    44    27    47    1
    45    28    48    1
    46    29    49    1
    47    30    50    1
    48     1    31    1
    49     1    27    1
    50     2    32    1
    51     2    28    1
    52     4    34    1
    53     4    30    1
