@<TRIPOS>MOLECULE
*****
 50 53 0 0 0
SMALL
GASTEIGER

@<TRIPOS>ATOM
     1 C         -0.330127   -1.327106   1.703118 C.3        1 UNL1     0.1889
     2 C         -0.461546   -0.975615   0.196757 C.3        1 UNL1     0.1342
     3 C         -1.902621   -0.964761   -0.335831 C.3        1 UNL1     0.1174
     4 C         -2.787742   -2.024189   0.325448 C.3        1 UNL1     0.1456
     5 C         -2.635443   -2.048048   1.857309 C.3        1 UNL1     0.2326
     6 O         -1.270213   -2.264664   2.206724 O.3        1 UNL1     -0.3076
     7 O         -3.211056   -0.900911   2.508514 O.3        1 UNL1     -0.4605
     8 C         -3.827173   -1.139428   3.723849 C.ar        1 UNL1     0.1310
     9 C         -4.714571   -2.1876   3.990609 C.ar        1 UNL1     0.0226
     10 C         -5.274884   -2.355528   5.262517 C.ar        1 UNL1     0.1343
     11 C         -4.942549   -1.492503   6.305868 C.ar        1 UNL1     0.1007
     12 C         -4.089447   -0.41783   6.041143 C.ar        1 UNL1     0.1389
     13 C         -3.528253   -0.247643   4.761483 C.ar        1 UNL1     0.0229
     14 C         -5.439451   -1.673021   7.689579 C.2        1 UNL1     0.1740
     15 C         -4.807968   -0.791158   8.726448 C.3        1 UNL1     0.0520
     16 C         -4.62997   0.599389   8.132602 C.3        1 UNL1     0.1322
     17 O         -3.780504   0.553441   6.964968 O.3        1 UNL1     -0.4828
     18 C         -5.944973   1.356257   7.931008 C.ar        1 UNL1     -0.0067
     19 C         -6.20208   1.980308   6.692997 C.ar        1 UNL1     -0.0516
     20 C         -7.373273   2.72024   6.491079 C.ar        1 UNL1     -0.0198
     21 C         -8.289687   2.849464   7.519337 C.ar        1 UNL1     0.1169
     22 C         -8.080436   2.218758   8.738871 C.ar        1 UNL1     -0.0198
     23 C         -6.918066   1.463451   8.934997 C.ar        1 UNL1     -0.0516
     24 O         -9.400706   3.609147   7.298163 O.3        1 UNL1     -0.5068
     25 O         -6.254603   -2.534695   8.008217 O.2        1 UNL1     -0.2917
     26 O         -6.134277   -3.397306   5.456756 O.3        1 UNL1     -0.5058
     27 O         -0.225404   -0.188054   2.542393 O.3        1 UNL1     -0.3648
     28 O         0.269468   -1.95411   -0.565393 O.3        1 UNL1     -0.3841
     29 O         -2.461121   0.348459   -0.260584 O.3        1 UNL1     -0.3863
     30 O         -2.439338   -3.325156   -0.195887 O.3        1 UNL1     -0.3829
     31 H         0.631017   -1.839066   1.822191 H        1 UNL1     0.0937
     32 H         0.0   0.0   0.0 H        1 UNL1     0.0671
     33 H         -1.865876   -1.205222   -1.407535 H        1 UNL1     0.0649
     34 H         -3.838124   -1.846953   0.069155 H        1 UNL1     0.0683
     35 H         -3.189281   -2.944104   2.164271 H        1 UNL1     0.1085
     36 H         -4.969325   -2.924778   3.237091 H        1 UNL1     0.0691
     37 H         -2.867779   0.597721   4.580854 H        1 UNL1     0.0691
     38 H         -3.842132   -1.233193   8.993451 H        1 UNL1     0.0385
     39 H         -5.438872   -0.781366   9.621793 H        1 UNL1     0.0385
     40 H         -4.062114   1.192639   8.862063 H        1 UNL1     0.0789
     41 H         -5.494148   1.901476   5.873078 H        1 UNL1     0.0623
     42 H         -7.554472   3.20665   5.535787 H        1 UNL1     0.0654
     43 H         -8.798673   2.300921   9.545899 H        1 UNL1     0.0654
     44 H         -6.792079   0.975616   9.89676 H        1 UNL1     0.0623
     45 H         -9.117059   4.514385   7.091266 H        1 UNL1     0.2921
     46 H         -5.809226   -3.953942   6.181952 H        1 UNL1     0.2922
     47 H         0.517096   0.36597   2.263807 H        1 UNL1     0.2126
     48 H         1.202335   -1.887744   -0.28417 H        1 UNL1     0.2101
     49 H         -2.022963   0.930648   -0.901573 H        1 UNL1     0.2100
     50 H         -2.672996   -3.341241   -1.147127 H        1 UNL1     0.2102
@<TRIPOS>BOND
     1     1     2    1
     2     1     6    1
     3     2     3    1
     4     3     4    1
     5     3    29    1
     6     3    33    1
     7     4     5    1
     8     5     6    1
     9     5     7    1
    10     5    35    1
    11     7     8    1
    12     8     9   ar
    13     8    13   ar
    14     9    10   ar
    15     9    36    1
    16    10    11   ar
    17    10    26    1
    18    11    12   ar
    19    11    14    1
    20    12    13   ar
    21    12    17    1
    22    13    37    1
    23    14    15    1
    24    14    25    2
    25    15    16    1
    26    15    38    1
    27    15    39    1
    28    16    17    1
    29    16    18    1
    30    16    40    1
    31    18    19   ar
    32    18    23   ar
    33    19    20   ar
    34    19    41    1
    35    20    21   ar
    36    20    42    1
    37    21    22   ar
    38    21    24    1
    39    22    23   ar
    40    22    43    1
    41    23    44    1
    42    24    45    1
    43    26    46    1
    44    27    47    1
    45    28    48    1
    46    29    49    1
    47    30    50    1
    48     1    31    1
    49     1    27    1
    50     2    32    1
    51     2    28    1
    52     4    34    1
    53     4    30    1
