@<TRIPOS>MOLECULE
*****
 50 53 0 0 0
SMALL
GASTEIGER

@<TRIPOS>ATOM
     1 C         -0.363037   -1.342908   1.683926 C.3        1 UNL1     0.1889
     2 C         -0.478612   -0.970367   0.181329 C.3        1 UNL1     0.1342
     3 C         -1.915709   -0.929324   -0.360458 C.3        1 UNL1     0.1174
     4 C         -2.822312   -1.982439   0.28152 C.3        1 UNL1     0.1456
     5 C         -2.680722   -2.028079   1.813915 C.3        1 UNL1     0.2326
     6 O         -1.321561   -2.271296   2.169438 O.3        1 UNL1     -0.3076
     7 O         -3.242029   -0.880014   2.475882 O.3        1 UNL1     -0.4605
     8 C         -3.193576   0.30965   1.771694 C.ar        1 UNL1     0.1310
     9 C         -2.07758   0.800051   1.085137 C.ar        1 UNL1     0.0226
     10 C         -2.133157   2.011126   0.385059 C.ar        1 UNL1     0.1343
     11 C         -3.314312   2.750168   0.334737 C.ar        1 UNL1     0.1007
     12 C         -4.423376   2.291221   1.050367 C.ar        1 UNL1     0.1389
     13 C         -4.366457   1.074788   1.756399 C.ar        1 UNL1     0.0229
     14 C         -3.453245   3.99332   -0.458626 C.2        1 UNL1     0.1740
     15 C         -4.847758   4.533925   -0.579567 C.3        1 UNL1     0.0520
     16 C         -5.542022   4.381514   0.766808 C.3        1 UNL1     0.1322
     17 O         -5.601997   2.992243   1.158471 O.3        1 UNL1     -0.4828
     18 C         -5.004173   5.322604   1.847451 C.ar        1 UNL1     -0.0067
     19 C         -4.675859   4.803752   3.116788 C.ar        1 UNL1     -0.0516
     20 C         -4.226445   5.644407   4.142111 C.ar        1 UNL1     -0.0198
     21 C         -4.108359   7.003671   3.913451 C.ar        1 UNL1     0.1169
     22 C         -4.392116   7.539658   2.664035 C.ar        1 UNL1     -0.0198
     23 C         -4.823915   6.696627   1.633063 C.ar        1 UNL1     -0.0516
     24 O         -3.703804   7.796361   4.947074 O.3        1 UNL1     -0.5068
     25 O         -2.519233   4.522498   -1.055349 O.2        1 UNL1     -0.2917
     26 O         -1.009407   2.434231   -0.262824 O.3        1 UNL1     -0.5058
     27 O         -0.245509   -0.216381   2.538274 O.3        1 UNL1     -0.3648
     28 O         0.241552   -1.95096   -0.588415 O.3        1 UNL1     -0.3841
     29 O         -2.453342   0.391769   -0.272167 O.3        1 UNL1     -0.3863
     30 O         -2.491546   -3.282237   -0.254025 O.3        1 UNL1     -0.3829
     31 H         0.588859   -1.871921   1.802743 H        1 UNL1     0.0937
     32 H         0.0   0.0   0.0 H        1 UNL1     0.0671
     33 H         -1.875663   -1.156827   -1.434869 H        1 UNL1     0.0649
     34 H         -3.867936   -1.784896   0.020662 H        1 UNL1     0.0683
     35 H         -3.251062   -2.91879   2.105848 H        1 UNL1     0.1085
     36 H         -1.146956   0.245093   1.039506 H        1 UNL1     0.0691
     37 H         -5.243314   0.74001   2.306435 H        1 UNL1     0.0691
     38 H         -5.360662   3.956393   -1.356042 H        1 UNL1     0.0385
     39 H         -4.800718   5.578672   -0.90525 H        1 UNL1     0.0385
     40 H         -6.591674   4.672202   0.624499 H        1 UNL1     0.0789
     41 H         -4.768741   3.74168   3.324215 H        1 UNL1     0.0623
     42 H         -3.987785   5.23395   5.120159 H        1 UNL1     0.0654
     43 H         -4.288705   8.600529   2.469691 H        1 UNL1     0.0654
     44 H         -5.026597   7.147884   0.666557 H        1 UNL1     0.0623
     45 H         -4.351324   7.716869   5.666182 H        1 UNL1     0.2921
     46 H         -1.210165   2.572655   -1.201944 H        1 UNL1     0.2922
     47 H         0.505966   0.330488   2.269798 H        1 UNL1     0.2126
     48 H         1.176589   -1.89108   -0.313005 H        1 UNL1     0.2101
     49 H         -2.001683   0.974713   -0.903019 H        1 UNL1     0.2100
     50 H         -2.719033   -3.282524   -1.206896 H        1 UNL1     0.2102
@<TRIPOS>BOND
     1     1     2    1
     2     1     6    1
     3     2     3    1
     4     3     4    1
     5     3    29    1
     6     3    33    1
     7     4     5    1
     8     5     6    1
     9     5     7    1
    10     5    35    1
    11     7     8    1
    12     8     9   ar
    13     8    13   ar
    14     9    10   ar
    15     9    36    1
    16    10    11   ar
    17    10    26    1
    18    11    12   ar
    19    11    14    1
    20    12    13   ar
    21    12    17    1
    22    13    37    1
    23    14    15    1
    24    14    25    2
    25    15    16    1
    26    15    38    1
    27    15    39    1
    28    16    17    1
    29    16    18    1
    30    16    40    1
    31    18    19   ar
    32    18    23   ar
    33    19    20   ar
    34    19    41    1
    35    20    21   ar
    36    20    42    1
    37    21    22   ar
    38    21    24    1
    39    22    23   ar
    40    22    43    1
    41    23    44    1
    42    24    45    1
    43    26    46    1
    44    27    47    1
    45    28    48    1
    46    29    49    1
    47    30    50    1
    48     1    31    1
    49     1    27    1
    50     2    32    1
    51     2    28    1
    52     4    34    1
    53     4    30    1
