@<TRIPOS>MOLECULE
*****
 50 53 0 0 0
SMALL
GASTEIGER

@<TRIPOS>ATOM
     1 C         -0.353973   -1.338734   1.689171 C.3        1 UNL1     0.1889
     2 C         -0.474136   -0.971763   0.185564 C.3        1 UNL1     0.1342
     3 C         -1.912477   -0.938623   -0.353455 C.3        1 UNL1     0.1174
     4 C         -2.813326   -1.993386   0.293898 C.3        1 UNL1     0.1456
     5 C         -2.668471   -2.03325   1.826148 C.3        1 UNL1     0.2326
     6 O         -1.307583   -2.269519   2.179744 O.3        1 UNL1     -0.3076
     7 O         -3.233304   -0.885337   2.485375 O.3        1 UNL1     -0.4605
     8 C         -3.750976   -1.105741   3.749087 C.ar        1 UNL1     0.1310
     9 C         -4.580948   -2.172581   4.110056 C.ar        1 UNL1     0.0226
     10 C         -5.041244   -2.318981   5.424056 C.ar        1 UNL1     0.1343
     11 C         -4.662978   -1.414409   6.415269 C.ar        1 UNL1     0.1007
     12 C         -3.867932   -0.322107   6.058109 C.ar        1 UNL1     0.1389
     13 C         -3.407396   -0.17366   4.736253 C.ar        1 UNL1     0.0229
     14 C         -5.051507   -1.567973   7.836401 C.2        1 UNL1     0.1740
     15 C         -4.376158   -0.635393   8.798559 C.3        1 UNL1     0.0520
     16 C         -4.288594   0.741217   8.154173 C.3        1 UNL1     0.1322
     17 O         -3.525312   0.686213   6.928838 O.3        1 UNL1     -0.4828
     18 C         -5.639426   1.449923   8.028812 C.ar        1 UNL1     -0.0067
     19 C         -6.005546   2.02983   6.796791 C.ar        1 UNL1     -0.0516
     20 C         -7.212472   2.726165   6.661108 C.ar        1 UNL1     -0.0198
     21 C         -8.056609   2.855627   7.749455 C.ar        1 UNL1     0.1169
     22 C         -7.739295   2.267025   8.966705 C.ar        1 UNL1     -0.0198
     23 C         -6.541063   1.554883   9.097657 C.ar        1 UNL1     -0.0516
     24 O         -9.205597   3.573054   7.589685 O.3        1 UNL1     -0.5068
     25 O         -5.811944   -2.44464   8.238492 O.2        1 UNL1     -0.2917
     26 O         -5.848795   -3.380775   5.710484 O.3        1 UNL1     -0.5058
     27 O         -0.239501   -0.208841   2.53948 O.3        1 UNL1     -0.3648
     28 O         0.248627   -1.951899   -0.582324 O.3        1 UNL1     -0.3841
     29 O         -2.455519   0.380477   -0.268531 O.3        1 UNL1     -0.3863
     30 O         -2.478135   -3.293576   -0.237932 O.3        1 UNL1     -0.3829
     31 H         0.60039   -1.863315   1.807848 H        1 UNL1     0.0937
     32 H         0.0   0.0   0.0 H        1 UNL1     0.0671
     33 H         -1.873623   -1.169584   -1.427172 H        1 UNL1     0.0649
     34 H         -3.860298   -1.801145   0.034487 H        1 UNL1     0.0683
     35 H         -3.23445   -2.925371   2.122233 H        1 UNL1     0.1085
     36 H         -4.865007   -2.940118   3.398495 H        1 UNL1     0.0691
     37 H         -2.790548   0.686085   4.483608 H        1 UNL1     0.0691
     38 H         -3.379168   -1.038522   9.005983 H        1 UNL1     0.0385
     39 H         -4.940189   -0.617991   9.737359 H        1 UNL1     0.0385
     40 H         -3.689365   1.374052   8.822726 H        1 UNL1     0.0789
     41 H         -5.35599   1.950062   5.929978 H        1 UNL1     0.0623
     42 H         -7.478007   3.179053   5.70906 H        1 UNL1     0.0654
     43 H         -8.400161   2.349424   9.821326 H        1 UNL1     0.0654
     44 H         -6.330053   1.099005   10.060203 H        1 UNL1     0.0623
     45 H         -8.968165   4.480725   7.33973 H        1 UNL1     0.2921
     46 H         -5.453848   -3.903887   6.425873 H        1 UNL1     0.2922
     47 H         0.510783   0.338844   2.26934 H        1 UNL1     0.2126
     48 H         1.181029   -1.898889   -0.296759 H        1 UNL1     0.2101
     49 H         -2.007597   0.96319   -0.902255 H        1 UNL1     0.2100
     50 H         -2.70753   -3.298043   -1.190334 H        1 UNL1     0.2102
@<TRIPOS>BOND
     1     1     2    1
     2     1     6    1
     3     2     3    1
     4     3     4    1
     5     3    29    1
     6     3    33    1
     7     4     5    1
     8     5     6    1
     9     5     7    1
    10     5    35    1
    11     7     8    1
    12     8     9   ar
    13     8    13   ar
    14     9    10   ar
    15     9    36    1
    16    10    11   ar
    17    10    26    1
    18    11    12   ar
    19    11    14    1
    20    12    13   ar
    21    12    17    1
    22    13    37    1
    23    14    15    1
    24    14    25    2
    25    15    16    1
    26    15    38    1
    27    15    39    1
    28    16    17    1
    29    16    18    1
    30    16    40    1
    31    18    19   ar
    32    18    23   ar
    33    19    20   ar
    34    19    41    1
    35    20    21   ar
    36    20    42    1
    37    21    22   ar
    38    21    24    1
    39    22    23   ar
    40    22    43    1
    41    23    44    1
    42    24    45    1
    43    26    46    1
    44    27    47    1
    45    28    48    1
    46    29    49    1
    47    30    50    1
    48     1    31    1
    49     1    27    1
    50     2    32    1
    51     2    28    1
    52     4    34    1
    53     4    30    1
