@<TRIPOS>MOLECULE
*****
 50 53 0 0 0
SMALL
GASTEIGER

@<TRIPOS>ATOM
     1 C         0.002342   -1.101432   1.886172 C.3        1 UNL1     0.1889
     2 C         -0.261422   -1.002979   0.359517 C.3        1 UNL1     0.1342
     3 C         -1.701976   -1.327637   -0.064591 C.3        1 UNL1     0.1174
     4 C         -2.342072   -2.419961   0.79577 C.3        1 UNL1     0.1456
     5 C         -2.117926   -2.192169   2.301835 C.3        1 UNL1     0.2326
     6 O         -0.721712   -2.108029   2.5782 O.3        1 UNL1     -0.3076
     7 O         -2.867451   -1.08367   2.831705 O.3        1 UNL1     -0.4605
     8 C         -3.26882   -1.198393   4.150519 C.ar        1 UNL1     0.1310
     9 C         -3.851051   -2.333651   4.724535 C.ar        1 UNL1     0.0226
     10 C         -4.208566   -2.357913   6.077863 C.ar        1 UNL1     0.1343
     11 C         -3.970427   -1.254714   6.896448 C.ar        1 UNL1     0.1007
     12 C         -3.427268   -0.100801   6.325267 C.ar        1 UNL1     0.1389
     13 C         -3.070308   -0.075735   4.963877 C.ar        1 UNL1     0.0229
     14 C         -4.25107   -1.255605   8.350887 C.2        1 UNL1     0.1740
     15 C         -3.729155   -0.073459   9.113569 C.3        1 UNL1     0.0520
     16 C         -3.94904   1.177124   8.273538 C.3        1 UNL1     0.1322
     17 O         -3.250542   1.077421   7.012892 O.3        1 UNL1     -0.4828
     18 C         -5.418456   1.588464   8.153793 C.ar        1 UNL1     -0.0067
     19 C         -5.952429   1.888155   6.883646 C.ar        1 UNL1     -0.0516
     20 C         -7.279038   2.313156   6.744204 C.ar        1 UNL1     -0.0198
     21 C         -8.077923   2.449216   7.865407 C.ar        1 UNL1     0.1169
     22 C         -7.590708   2.129534   9.126067 C.ar        1 UNL1     -0.0198
     23 C         -6.269689   1.686823   9.263803 C.ar        1 UNL1     -0.0516
     24 O         -9.353203   2.901865   7.694616 O.3        1 UNL1     -0.5068
     25 O         -4.801138   -2.186913   8.932759 O.2        1 UNL1     -0.2917
     26 O         -4.773478   -3.495654   6.575863 O.3        1 UNL1     -0.5058
     27 O         -0.069445   0.148199   2.554045 O.3        1 UNL1     -0.3648
     28 O         0.603968   -1.93584   -0.313964 O.3        1 UNL1     -0.3841
     29 O         -2.492179   -0.138626   -0.127568 O.3        1 UNL1     -0.3863
     30 O         -1.780779   -3.699749   0.431378 O.3        1 UNL1     -0.3829
     31 H         1.046706   -1.410498   2.003903 H        1 UNL1     0.0937
     32 H         0.0   0.0   0.0 H        1 UNL1     0.0671
     33 H         -1.670084   -1.711619   -1.093795 H        1 UNL1     0.0649
     34 H         -3.417695   -2.472573   0.594104 H        1 UNL1     0.0683
     35 H         -2.479739   -3.118122   2.766143 H        1 UNL1     0.1085
     36 H         -4.010705   -3.242532   4.154827 H        1 UNL1     0.0691
     37 H         -2.650145   0.835252   4.543093 H        1 UNL1     0.0691
     38 H         -2.662958   -0.242865   9.298103 H        1 UNL1     0.0385
     39 H         -4.239062   -0.017116   10.081349 H        1 UNL1     0.0385
     40 H         -3.456164   2.008476   8.795503 H        1 UNL1     0.0789
     41 H         -5.34308   1.798104   5.989087 H        1 UNL1     0.0623
     42 H         -7.6756   2.552654   5.760643 H        1 UNL1     0.0654
     43 H         -8.212244   2.218083   10.009109 H        1 UNL1     0.0654
     44 H         -5.925385   1.43574   10.262431 H        1 UNL1     0.0623
     45 H         -9.31384   3.787498   7.298608 H        1 UNL1     0.2921
     46 H         -4.247947   -3.8163   7.325806 H        1 UNL1     0.2922
     47 H         0.542644   0.779248   2.150332 H        1 UNL1     0.2126
     48 H         1.519861   -1.663127   -0.112717 H        1 UNL1     0.2101
     49 H         -2.200551   0.412426   -0.871267 H        1 UNL1     0.2100
     50 H         -2.05067   -3.896112   -0.489661 H        1 UNL1     0.2102
@<TRIPOS>BOND
     1     1     2    1
     2     1     6    1
     3     2     3    1
     4     3     4    1
     5     3    29    1
     6     3    33    1
     7     4     5    1
     8     5     6    1
     9     5     7    1
    10     5    35    1
    11     7     8    1
    12     8     9   ar
    13     8    13   ar
    14     9    10   ar
    15     9    36    1
    16    10    11   ar
    17    10    26    1
    18    11    12   ar
    19    11    14    1
    20    12    13   ar
    21    12    17    1
    22    13    37    1
    23    14    15    1
    24    14    25    2
    25    15    16    1
    26    15    38    1
    27    15    39    1
    28    16    17    1
    29    16    18    1
    30    16    40    1
    31    18    19   ar
    32    18    23   ar
    33    19    20   ar
    34    19    41    1
    35    20    21   ar
    36    20    42    1
    37    21    22   ar
    38    21    24    1
    39    22    23   ar
    40    22    43    1
    41    23    44    1
    42    24    45    1
    43    26    46    1
    44    27    47    1
    45    28    48    1
    46    29    49    1
    47    30    50    1
    48     1    31    1
    49     1    27    1
    50     2    32    1
    51     2    28    1
    52     4    34    1
    53     4    30    1
