@<TRIPOS>MOLECULE
*****
 50 53 0 0 0
SMALL
GASTEIGER

@<TRIPOS>ATOM
     1 C         -1.285661   -1.656212   -0.612243 C.3        1 UNL1     0.1889
     2 C         -0.14462   -1.057532   0.253521 C.3        1 UNL1     0.1342
     3 C         1.201038   -1.789559   0.136016 C.3        1 UNL1     0.1174
     4 C         1.040428   -3.299899   -0.054232 C.3        1 UNL1     0.1456
     5 C         -0.013612   -3.651767   -1.119855 C.3        1 UNL1     0.2326
     6 O         -1.267326   -3.066708   -0.775216 O.3        1 UNL1     -0.3076
     7 O         0.40405   -3.344852   -2.462495 O.3        1 UNL1     -0.4605
     8 C         -0.528312   -3.581828   -3.456513 C.ar        1 UNL1     0.1310
     9 C         -1.832534   -4.044336   -3.250622 C.ar        1 UNL1     0.0226
     10 C         -2.709898   -4.237458   -4.324325 C.ar        1 UNL1     0.1343
     11 C         -2.311584   -3.949771   -5.629094 C.ar        1 UNL1     0.1007
     12 C         -0.998497   -3.526461   -5.851342 C.ar        1 UNL1     0.1389
     13 C         -0.115669   -3.334881   -4.771831 C.ar        1 UNL1     0.0229
     14 C         -3.223732   -4.055601   -6.791394 C.2        1 UNL1     0.1740
     15 C         -2.699385   -3.496289   -8.08127 C.3        1 UNL1     0.0520
     16 C         -1.227521   -3.865874   -8.203669 C.3        1 UNL1     0.1322
     17 O         -0.468119   -3.318345   -7.103401 O.3        1 UNL1     -0.4828
     18 C         -0.985583   -5.354883   -8.462598 C.ar        1 UNL1     -0.0067
     19 C         -1.699313   -6.003903   -9.490983 C.ar        1 UNL1     -0.0516
     20 C         -1.53696   -7.374898   -9.723315 C.ar        1 UNL1     -0.0198
     21 C         -0.671369   -8.107791   -8.9312 C.ar        1 UNL1     0.1169
     22 C         0.070489   -7.490414   -7.932535 C.ar        1 UNL1     -0.0198
     23 C         -0.077875   -6.115855   -7.71201 C.ar        1 UNL1     -0.0516
     24 O         -0.56761   -9.448005   -9.162416 O.3        1 UNL1     -0.5068
     25 O         -4.368573   -4.493715   -6.714711 O.2        1 UNL1     -0.2917
     26 O         -3.968161   -4.6917   -4.055952 O.3        1 UNL1     -0.5058
     27 O         -1.465541   -0.988169   -1.85085 O.3        1 UNL1     -0.3648
     28 O         -0.543459   -1.113493   1.63573 O.3        1 UNL1     -0.3841
     29 O         2.018855   -1.18887   -0.870206 O.3        1 UNL1     -0.3863
     30 O         0.648263   -3.896456   1.201163 O.3        1 UNL1     -0.3829
     31 H         -2.219297   -1.473318   -0.069146 H        1 UNL1     0.0937
     32 H         0.0   0.0   0.0 H        1 UNL1     0.0671
     33 H         1.745374   -1.644205   1.079568 H        1 UNL1     0.0649
     34 H         2.001118   -3.745756   -0.334743 H        1 UNL1     0.0683
     35 H         -0.132191   -4.738501   -1.0259 H        1 UNL1     0.1085
     36 H         -2.220314   -4.23268   -2.255496 H        1 UNL1     0.0691
     37 H         0.901791   -3.00569   -4.971589 H        1 UNL1     0.0691
     38 H         -2.832416   -2.409636   -8.04942 H        1 UNL1     0.0385
     39 H         -3.295512   -3.889673   -8.911727 H        1 UNL1     0.0385
     40 H         -0.836779   -3.349404   -9.090855 H        1 UNL1     0.0789
     41 H         -2.391633   -5.452635   -10.120624 H        1 UNL1     0.0623
     42 H         -2.101913   -7.866212   -10.511636 H        1 UNL1     0.0654
     43 H         0.762371   -8.051977   -7.316209 H        1 UNL1     0.0654
     44 H         0.525357   -5.664331   -6.930293 H        1 UNL1     0.0623
     45 H         0.374275   -9.679891   -9.204841 H        1 UNL1     0.2921
     46 H         -4.063152   -4.836251   -3.10123 H        1 UNL1     0.2922
     47 H         -0.661895   -1.052138   -2.385566 H        1 UNL1     0.2126
     48 H         -0.26878   -0.268259   2.04053 H        1 UNL1     0.2101
     49 H         2.467898   -1.877958   -1.385291 H        1 UNL1     0.2100
     50 H         -0.190587   -3.477569   1.485023 H        1 UNL1     0.2102
@<TRIPOS>BOND
     1     1     2    1
     2     1     6    1
     3     2     3    1
     4     3     4    1
     5     3    29    1
     6     3    33    1
     7     4     5    1
     8     5     6    1
     9     5     7    1
    10     5    35    1
    11     7     8    1
    12     8     9   ar
    13     8    13   ar
    14     9    10   ar
    15     9    36    1
    16    10    11   ar
    17    10    26    1
    18    11    12   ar
    19    11    14    1
    20    12    13   ar
    21    12    17    1
    22    13    37    1
    23    14    15    1
    24    14    25    2
    25    15    16    1
    26    15    38    1
    27    15    39    1
    28    16    17    1
    29    16    18    1
    30    16    40    1
    31    18    19   ar
    32    18    23   ar
    33    19    20   ar
    34    19    41    1
    35    20    21   ar
    36    20    42    1
    37    21    22   ar
    38    21    24    1
    39    22    23   ar
    40    22    43    1
    41    23    44    1
    42    24    45    1
    43    26    46    1
    44    27    47    1
    45    28    48    1
    46    29    49    1
    47    30    50    1
    48     1    31    1
    49     1    27    1
    50     2    32    1
    51     2    28    1
    52     4    34    1
    53     4    30    1
