@<TRIPOS>MOLECULE
*****
 50 53 0 0 0
SMALL
GASTEIGER

@<TRIPOS>ATOM
     1 C         -0.325636   -1.360412   1.677512 C.3        1 UNL1     0.1889
     2 C         -0.465017   -0.977273   0.179607 C.3        1 UNL1     0.1342
     3 C         -1.909414   -0.9486   -0.343231 C.3        1 UNL1     0.1174
     4 C         -2.795417   -2.017253   0.301825 C.3        1 UNL1     0.1456
     5 C         -2.633397   -2.073459   1.831843 C.3        1 UNL1     0.2326
     6 O         -1.26702   -2.303706   2.167803 O.3        1 UNL1     -0.3076
     7 O         -3.199222   -0.9373   2.510302 O.3        1 UNL1     -0.4605
     8 C         -3.711551   -1.17823   3.772443 C.ar        1 UNL1     0.1310
     9 C         -4.62462   -2.187214   4.097338 C.ar        1 UNL1     0.0226
     10 C         -5.07247   -2.362078   5.41216 C.ar        1 UNL1     0.1343
     11 C         -4.599395   -1.546482   6.439215 C.ar        1 UNL1     0.1007
     12 C         -3.718832   -0.509363   6.120188 C.ar        1 UNL1     0.1389
     13 C         -3.270706   -0.332072   4.797622 C.ar        1 UNL1     0.0229
     14 C         -4.97448   -1.740249   7.859046 C.2        1 UNL1     0.1740
     15 C         -4.203576   -0.920799   8.851901 C.3        1 UNL1     0.0520
     16 C         -4.008081   0.475022   8.276208 C.3        1 UNL1     0.1322
     17 O         -3.274383   0.418824   7.032986 O.3        1 UNL1     -0.4828
     18 C         -5.294166   1.302789   8.216944 C.ar        1 UNL1     -0.0067
     19 C         -5.62273   1.987811   7.029087 C.ar        1 UNL1     -0.0516
     20 C         -6.766634   2.791652   6.956385 C.ar        1 UNL1     -0.0198
     21 C         -7.58426   2.924216   8.06442 C.ar        1 UNL1     0.1169
     22 C         -7.305231   2.235635   9.237807 C.ar        1 UNL1     -0.0198
     23 C         -6.171402   1.417113   9.30496 C.ar        1 UNL1     -0.0516
     24 O         -8.668897   3.745599   7.968019 O.3        1 UNL1     -0.5068
     25 O         -5.801015   -2.568152   8.233077 O.2        1 UNL1     -0.2917
     26 O         -5.964091   -3.364068   5.662385 O.3        1 UNL1     -0.5058
     27 O         -0.209978   -0.239442   2.539392 O.3        1 UNL1     -0.3648
     28 O         0.256311   -1.943272   -0.607308 O.3        1 UNL1     -0.3841
     29 O         -2.461019   0.365417   -0.237282 O.3        1 UNL1     -0.3863
     30 O         -2.456709   -3.308813   -0.248483 O.3        1 UNL1     -0.3829
     31 H         0.633749   -1.879268   1.779731 H        1 UNL1     0.0937
     32 H         0.0   0.0   0.0 H        1 UNL1     0.0671
     33 H         -1.880727   -1.167052   -1.419881 H        1 UNL1     0.0649
     34 H         -3.846548   -1.82979   0.0561 H        1 UNL1     0.0683
     35 H         -3.189608   -2.97303   2.123872 H        1 UNL1     0.1085
     36 H         -4.986967   -2.889203   3.354347 H        1 UNL1     0.0691
     37 H         -2.586006   0.483516   4.575146 H        1 UNL1     0.0691
     38 H         -3.241898   -1.418423   9.016435 H        1 UNL1     0.0385
     39 H         -4.747175   -0.90414   9.802691 H        1 UNL1     0.0385
     40 H         -3.344288   1.018156   8.962433 H        1 UNL1     0.0789
     41 H         -4.992192   1.907382   6.148403 H        1 UNL1     0.0623
     42 H         -7.002803   3.324259   6.038471 H        1 UNL1     0.0654
     43 H         -7.946946   2.320408   10.106673 H        1 UNL1     0.0654
     44 H         -5.989693   0.885525   10.234068 H        1 UNL1     0.0623
     45 H         -8.35542   4.649221   7.800939 H        1 UNL1     0.2921
     46 H         -5.604082   -3.955126   6.342426 H        1 UNL1     0.2922
     47 H         0.520391   0.327607   2.255003 H        1 UNL1     0.2126
     48 H         1.197648   -1.857036   -0.361993 H        1 UNL1     0.2101
     49 H         -2.030113   0.956616   -0.874932 H        1 UNL1     0.2100
     50 H         -2.701766   -3.306079   -1.196984 H        1 UNL1     0.2102
@<TRIPOS>BOND
     1     1     2    1
     2     1     6    1
     3     2     3    1
     4     3     4    1
     5     3    29    1
     6     3    33    1
     7     4     5    1
     8     5     6    1
     9     5     7    1
    10     5    35    1
    11     7     8    1
    12     8     9   ar
    13     8    13   ar
    14     9    10   ar
    15     9    36    1
    16    10    11   ar
    17    10    26    1
    18    11    12   ar
    19    11    14    1
    20    12    13   ar
    21    12    17    1
    22    13    37    1
    23    14    15    1
    24    14    25    2
    25    15    16    1
    26    15    38    1
    27    15    39    1
    28    16    17    1
    29    16    18    1
    30    16    40    1
    31    18    19   ar
    32    18    23   ar
    33    19    20   ar
    34    19    41    1
    35    20    21   ar
    36    20    42    1
    37    21    22   ar
    38    21    24    1
    39    22    23   ar
    40    22    43    1
    41    23    44    1
    42    24    45    1
    43    26    46    1
    44    27    47    1
    45    28    48    1
    46    29    49    1
    47    30    50    1
    48     1    31    1
    49     1    27    1
    50     2    32    1
    51     2    28    1
    52     4    34    1
    53     4    30    1
