@<TRIPOS>MOLECULE
*****
 50 53 0 0 0
SMALL
GASTEIGER

@<TRIPOS>ATOM
     1 C         -0.350972   -1.33795   1.690418 C.3        1 UNL1     0.1889
     2 C         -0.471738   -0.972764   0.186425 C.3        1 UNL1     0.1342
     3 C         -1.910045   -0.943761   -0.352925 C.3        1 UNL1     0.1174
     4 C         -2.808384   -2.000138   0.295282 C.3        1 UNL1     0.1456
     5 C         -2.663751   -2.038128   1.827601 C.3        1 UNL1     0.2326
     6 O         -1.30235   -2.270638   2.181711 O.3        1 UNL1     -0.3076
     7 O         -3.231596   -0.890985   2.485578 O.3        1 UNL1     -0.4605
     8 C         -3.759166   -1.113822   3.744761 C.ar        1 UNL1     0.1310
     9 C         -4.593648   -2.180182   4.096639 C.ar        1 UNL1     0.0226
     10 C         -5.064097   -2.329246   5.406738 C.ar        1 UNL1     0.1343
     11 C         -4.69179   -1.427932   6.403163 C.ar        1 UNL1     0.1007
     12 C         -3.892219   -0.336062   6.054897 C.ar        1 UNL1     0.1389
     13 C         -3.421468   -0.18493   4.736951 C.ar        1 UNL1     0.0229
     14 C         -5.091296   -1.584566   7.820912 C.2        1 UNL1     0.1740
     15 C         -4.421649   -0.655679   8.790598 C.3        1 UNL1     0.0520
     16 C         -4.326888   0.722469   8.15053 C.3        1 UNL1     0.1322
     17 O         -3.554473   0.669376   6.930847 O.3        1 UNL1     -0.4828
     18 C         -5.675531   1.433818   8.016855 C.ar        1 UNL1     -0.0067
     19 C         -6.024968   2.030522   6.788013 C.ar        1 UNL1     -0.0516
     20 C         -7.229589   2.729533   6.645756 C.ar        1 UNL1     -0.0198
     21 C         -8.08799   2.844982   7.72448 C.ar        1 UNL1     0.1169
     22 C         -7.787163   2.239819   8.93779 C.ar        1 UNL1     -0.0198
     23 C         -6.591183   1.525073   9.07499 C.ar        1 UNL1     -0.0516
     24 O         -9.234346   3.565362   7.55919 O.3        1 UNL1     -0.5068
     25 O         -5.856232   -2.46098   8.214937 O.2        1 UNL1     -0.2917
     26 O         -5.875587   -3.390401   5.68426 O.3        1 UNL1     -0.5058
     27 O         -0.239509   -0.206936   2.539635 O.3        1 UNL1     -0.3648
     28 O         0.253638   -1.951843   -0.580347 O.3        1 UNL1     -0.3841
     29 O         -2.456408   0.374058   -0.269415 O.3        1 UNL1     -0.3863
     30 O         -2.469826   -3.300008   -0.235196 O.3        1 UNL1     -0.3829
     31 H         0.604678   -1.860021   1.809809 H        1 UNL1     0.0937
     32 H         0.0   0.0   0.0 H        1 UNL1     0.0671
     33 H         -1.870387   -1.175681   -1.426405 H        1 UNL1     0.0649
     34 H         -3.85578   -1.810777   0.035465 H        1 UNL1     0.0683
     35 H         -3.227555   -2.931373   2.124448 H        1 UNL1     0.1085
     36 H         -4.873628   -2.945357   3.380931 H        1 UNL1     0.0691
     37 H         -2.801272   0.674416   4.491238 H        1 UNL1     0.0691
     38 H         -3.426938   -1.061061   9.004473 H        1 UNL1     0.0385
     39 H         -4.99272   -0.639776   9.725159 H        1 UNL1     0.0385
     40 H         -3.73165   1.352515   8.825254 H        1 UNL1     0.0789
     41 H         -5.364037   1.961931   5.928877 H        1 UNL1     0.0623
     42 H         -7.482231   3.195387   5.69646 H        1 UNL1     0.0654
     43 H         -8.459241   2.311214   9.784623 H        1 UNL1     0.0654
     44 H         -6.393202   1.056129   10.034021 H        1 UNL1     0.0623
     45 H         -8.992928   4.483344   7.354878 H        1 UNL1     0.2921
     46 H         -5.487631   -3.915294   6.402166 H        1 UNL1     0.2922
     47 H         0.496739   0.353088   2.256491 H        1 UNL1     0.2126
     48 H         1.192583   -1.867015   -0.325553 H        1 UNL1     0.2101
     49 H         -2.015535   0.955263   -0.909435 H        1 UNL1     0.2100
     50 H         -2.704249   -3.30788   -1.186351 H        1 UNL1     0.2102
@<TRIPOS>BOND
     1     1     2    1
     2     1     6    1
     3     2     3    1
     4     3     4    1
     5     3    29    1
     6     3    33    1
     7     4     5    1
     8     5     6    1
     9     5     7    1
    10     5    35    1
    11     7     8    1
    12     8     9   ar
    13     8    13   ar
    14     9    10   ar
    15     9    36    1
    16    10    11   ar
    17    10    26    1
    18    11    12   ar
    19    11    14    1
    20    12    13   ar
    21    12    17    1
    22    13    37    1
    23    14    15    1
    24    14    25    2
    25    15    16    1
    26    15    38    1
    27    15    39    1
    28    16    17    1
    29    16    18    1
    30    16    40    1
    31    18    19   ar
    32    18    23   ar
    33    19    20   ar
    34    19    41    1
    35    20    21   ar
    36    20    42    1
    37    21    22   ar
    38    21    24    1
    39    22    23   ar
    40    22    43    1
    41    23    44    1
    42    24    45    1
    43    26    46    1
    44    27    47    1
    45    28    48    1
    46    29    49    1
    47    30    50    1
    48     1    31    1
    49     1    27    1
    50     2    32    1
    51     2    28    1
    52     4    34    1
    53     4    30    1
