@<TRIPOS>MOLECULE
*****
 50 53 0 0 0
SMALL
GASTEIGER

@<TRIPOS>ATOM
     1 C         -0.404341   -1.359244   1.661255 C.3        1 UNL1     0.1889
     2 C         -0.50006   -0.962704   0.163412 C.3        1 UNL1     0.1342
     3 C         -1.931585   -0.883905   -0.388847 C.3        1 UNL1     0.1174
     4 C         -2.864958   -1.927069   0.230621 C.3        1 UNL1     0.1456
     5 C         -2.736696   -1.997786   1.763237 C.3        1 UNL1     0.2326
     6 O         -1.385775   -2.274379   2.1257 O.3        1 UNL1     -0.3076
     7 O         -3.279411   -0.847961   2.437538 O.3        1 UNL1     -0.4605
     8 C         -3.814784   -1.077649   3.692188 C.ar        1 UNL1     0.1310
     9 C         -4.674409   -2.129679   4.026219 C.ar        1 UNL1     0.0226
     10 C         -5.151091   -2.287714   5.33301 C.ar        1 UNL1     0.1343
     11 C         -4.760327   -1.410464   6.343741 C.ar        1 UNL1     0.1007
     12 C         -3.935024   -0.332181   6.013646 C.ar        1 UNL1     0.1389
     13 C         -3.457976   -0.171968   4.69904 C.ar        1 UNL1     0.0229
     14 C         -5.166499   -1.579337   7.758188 C.2        1 UNL1     0.1740
     15 C         -4.47778   -0.680982   8.743163 C.3        1 UNL1     0.0520
     16 C         -4.349848   0.704168   8.124333 C.3        1 UNL1     0.1322
     17 O         -3.576143   0.65178   6.905437 O.3        1 UNL1     -0.4828
     18 C         -5.681432   1.448407   7.998971 C.ar        1 UNL1     -0.0067
     19 C         -6.022211   2.056501   6.773286 C.ar        1 UNL1     -0.0516
     20 C         -7.210158   2.784927   6.638606 C.ar        1 UNL1     -0.0198
     21 C         -8.060263   2.918496   7.721799 C.ar        1 UNL1     0.1169
     22 C         -7.768362   2.303166   8.932172 C.ar        1 UNL1     -0.0198
     23 C         -6.589458   1.559232   9.061799 C.ar        1 UNL1     -0.0516
     24 O         -9.189556   3.666927   7.563853 O.3        1 UNL1     -0.5068
     25 O         -5.952312   -2.44374   8.137384 O.2        1 UNL1     -0.2917
     26 O         -5.987444   -3.333945   5.592815 O.3        1 UNL1     -0.5058
     27 O         -0.270385   -0.247873   2.532861 O.3        1 UNL1     -0.3648
     28 O         0.205811   -1.946864   -0.614972 O.3        1 UNL1     -0.3841
     29 O         -2.442425   0.446689   -0.285433 O.3        1 UNL1     -0.3863
     30 O         -2.556888   -3.225602   -0.32128 O.3        1 UNL1     -0.3829
     31 H         0.535402   -1.909636   1.779708 H        1 UNL1     0.0937
     32 H         0.0   0.0   0.0 H        1 UNL1     0.0671
     33 H         -1.887605   -1.096645   -1.466125 H        1 UNL1     0.0649
     34 H         -3.904129   -1.704036   -0.035425 H        1 UNL1     0.0683
     35 H         -3.327703   -2.880546   2.03769 H        1 UNL1     0.1085
     36 H         -4.970358   -2.877235   3.298417 H        1 UNL1     0.0691
     37 H         -2.817588   0.676463   4.467608 H        1 UNL1     0.0691
     38 H         -3.493158   -1.112418   8.952708 H        1 UNL1     0.0385
     39 H         -5.050415   -0.66609   9.676782 H        1 UNL1     0.0385
     40 H         -3.741749   1.309991   8.809691 H        1 UNL1     0.0789
     41 H         -5.367311   1.974023   5.910757 H        1 UNL1     0.0623
     42 H         -7.455998   3.259158   5.691674 H        1 UNL1     0.0654
     43 H         -8.434394   2.388748   9.782458 H        1 UNL1     0.0654
     44 H         -6.398291   1.083215   10.018725 H        1 UNL1     0.0623
     45 H         -8.9274   4.571981   7.329611 H        1 UNL1     0.2921
     46 H         -5.612026   -3.879947   6.301586 H        1 UNL1     0.2922
     47 H         0.496115   0.285432   2.280032 H        1 UNL1     0.2126
     48 H         1.136155   -1.922849   -0.318971 H        1 UNL1     0.2101
     49 H         -1.973539   1.029205   -0.903991 H        1 UNL1     0.2100
     50 H         -2.776647   -3.207381   -1.275789 H        1 UNL1     0.2102
@<TRIPOS>BOND
     1     1     2    1
     2     1     6    1
     3     2     3    1
     4     3     4    1
     5     3    29    1
     6     3    33    1
     7     4     5    1
     8     5     6    1
     9     5     7    1
    10     5    35    1
    11     7     8    1
    12     8     9   ar
    13     8    13   ar
    14     9    10   ar
    15     9    36    1
    16    10    11   ar
    17    10    26    1
    18    11    12   ar
    19    11    14    1
    20    12    13   ar
    21    12    17    1
    22    13    37    1
    23    14    15    1
    24    14    25    2
    25    15    16    1
    26    15    38    1
    27    15    39    1
    28    16    17    1
    29    16    18    1
    30    16    40    1
    31    18    19   ar
    32    18    23   ar
    33    19    20   ar
    34    19    41    1
    35    20    21   ar
    36    20    42    1
    37    21    22   ar
    38    21    24    1
    39    22    23   ar
    40    22    43    1
    41    23    44    1
    42    24    45    1
    43    26    46    1
    44    27    47    1
    45    28    48    1
    46    29    49    1
    47    30    50    1
    48     1    31    1
    49     1    27    1
    50     2    32    1
    51     2    28    1
    52     4    34    1
    53     4    30    1
