@<TRIPOS>MOLECULE
*****
 50 53 0 0 0
SMALL
GASTEIGER

@<TRIPOS>ATOM
     1 C         -0.965543   0.251116   1.943057 C.3        1 UNL1     0.1889
     2 C         0.070695   -0.427994   1.007663 C.3        1 UNL1     0.1342
     3 C         -0.055665   -1.956239   0.912985 C.3        1 UNL1     0.1174
     4 C         -0.49474   -2.598269   2.231366 C.3        1 UNL1     0.1456
     5 C         -1.681789   -1.862647   2.879547 C.3        1 UNL1     0.2326
     6 O         -1.347958   -0.49266   3.090642 O.3        1 UNL1     -0.3076
     7 O         -2.922019   -2.040208   2.171295 O.3        1 UNL1     -0.4605
     8 C         -2.813775   -2.346446   0.826665 C.ar        1 UNL1     0.1310
     9 C         -1.874494   -1.801566   -0.055467 C.ar        1 UNL1     0.0226
     10 C         -1.834078   -2.189639   -1.399963 C.ar        1 UNL1     0.1343
     11 C         -2.717464   -3.150604   -1.889878 C.ar        1 UNL1     0.1007
     12 C         -3.68656   -3.671684   -1.028418 C.ar        1 UNL1     0.1389
     13 C         -3.728698   -3.279364   0.322781 C.ar        1 UNL1     0.0229
     14 C         -2.664583   -3.658755   -3.280252 C.2        1 UNL1     0.1740
     15 C         -3.53693   -4.844303   -3.571858 C.3        1 UNL1     0.0520
     16 C         -4.86773   -4.650408   -2.858182 C.3        1 UNL1     0.1322
     17 O         -4.673086   -4.541806   -1.430811 O.3        1 UNL1     -0.4828
     18 C         -5.737624   -3.547176   -3.465544 C.ar        1 UNL1     -0.0067
     19 C         -5.800947   -3.407987   -4.867268 C.ar        1 UNL1     -0.0516
     20 C         -6.549082   -2.380371   -5.454008 C.ar        1 UNL1     -0.0198
     21 C         -7.23086   -1.483099   -4.651569 C.ar        1 UNL1     0.1169
     22 C         -7.214909   -1.614362   -3.269051 C.ar        1 UNL1     -0.0198
     23 C         -6.481827   -2.652985   -2.682614 C.ar        1 UNL1     -0.0516
     24 O         -7.91802   -0.472642   -5.25753 O.3        1 UNL1     -0.5068
     25 O         -1.906415   -3.209717   -4.13584 O.2        1 UNL1     -0.2917
     26 O         -0.894328   -1.619503   -2.208295 O.3        1 UNL1     -0.5058
     27 O         -2.092911   0.770061   1.255653 O.3        1 UNL1     -0.3648
     28 O         1.391098   -0.137152   1.502285 O.3        1 UNL1     -0.3841
     29 O         -0.886931   -2.329047   -0.187989 O.3        1 UNL1     -0.3863
     30 O         0.61573   -2.5912   3.154674 O.3        1 UNL1     -0.3829
     31 H         -0.475047   1.135986   2.363174 H        1 UNL1     0.0937
     32 H         0.0   0.0   -0.0 H        1 UNL1     0.0671
     33 H         0.938649   -2.361024   0.678021 H        1 UNL1     0.0649
     34 H         -0.766321   -3.64653   2.064652 H        1 UNL1     0.0683
     35 H         -1.77074   -2.325582   3.870334 H        1 UNL1     0.1085
     36 H         -1.124791   -1.091884   0.276824 H        1 UNL1     0.0691
     37 H         -4.493604   -3.699018   0.972629 H        1 UNL1     0.0691
     38 H         -3.017824   -5.735867   -3.204204 H        1 UNL1     0.0385
     39 H         -3.658894   -4.942194   -4.65598 H        1 UNL1     0.0385
     40 H         -5.442317   -5.577627   -2.987155 H        1 UNL1     0.0789
     41 H         -5.267307   -4.093929   -5.518699 H        1 UNL1     0.0623
     42 H         -6.580401   -2.276368   -6.535772 H        1 UNL1     0.0654
     43 H         -7.757427   -0.926284   -2.631765 H        1 UNL1     0.0654
     44 H         -6.500158   -2.731965   -1.5999 H        1 UNL1     0.0623
     45 H         -7.290866   0.056697   -5.77637 H        1 UNL1     0.2921
     46 H         -0.773598   -2.167009   -3.000174 H        1 UNL1     0.2922
     47 H         -1.867569   0.952372   0.332699 H        1 UNL1     0.2126
     48 H         1.852233   0.355001   0.795976 H        1 UNL1     0.2101
     49 H         -0.430524   -2.142925   -1.023959 H        1 UNL1     0.2100
     50 H         1.423343   -2.354684   2.653142 H        1 UNL1     0.2102
@<TRIPOS>BOND
     1     1     2    1
     2     1     6    1
     3     2     3    1
     4     3     4    1
     5     3    29    1
     6     3    33    1
     7     4     5    1
     8     5     6    1
     9     5     7    1
    10     5    35    1
    11     7     8    1
    12     8     9   ar
    13     8    13   ar
    14     9    10   ar
    15     9    36    1
    16    10    11   ar
    17    10    26    1
    18    11    12   ar
    19    11    14    1
    20    12    13   ar
    21    12    17    1
    22    13    37    1
    23    14    15    1
    24    14    25    2
    25    15    16    1
    26    15    38    1
    27    15    39    1
    28    16    17    1
    29    16    18    1
    30    16    40    1
    31    18    19   ar
    32    18    23   ar
    33    19    20   ar
    34    19    41    1
    35    20    21   ar
    36    20    42    1
    37    21    22   ar
    38    21    24    1
    39    22    23   ar
    40    22    43    1
    41    23    44    1
    42    24    45    1
    43    26    46    1
    44    27    47    1
    45    28    48    1
    46    29    49    1
    47    30    50    1
    48     1    31    1
    49     1    27    1
    50     2    32    1
    51     2    28    1
    52     4    34    1
    53     4    30    1
