@<TRIPOS>MOLECULE
*****
 50 53 0 0 0
SMALL
GASTEIGER

@<TRIPOS>ATOM
     1 C         -0.370952   -1.397455   1.637168 C.3        1 UNL1     0.1889
     2 C         -0.487956   -0.971212   0.149026 C.3        1 UNL1     0.1342
     3 C         -1.926448   -0.89653   -0.385417 C.3        1 UNL1     0.1174
     4 C         -2.841605   -1.962254   0.222725 C.3        1 UNL1     0.1456
     5 C         -2.69511   -2.063126   1.752015 C.3        1 UNL1     0.2326
     6 O         -1.33729   -2.332511   2.093519 O.3        1 UNL1     -0.3076
     7 O         -3.242215   -0.93336   2.456022 O.3        1 UNL1     -0.4605
     8 C         -4.583251   -0.674095   2.237088 C.ar        1 UNL1     0.1310
     9 C         -5.212774   -0.661697   0.987749 C.ar        1 UNL1     0.0226
     10 C         -6.583901   -0.404361   0.870738 C.ar        1 UNL1     0.1343
     11 C         -7.364141   -0.176466   2.003491 C.ar        1 UNL1     0.1007
     12 C         -6.739192   -0.145716   3.253002 C.ar        1 UNL1     0.1389
     13 C         -5.36003   -0.401881   3.370152 C.ar        1 UNL1     0.0229
     14 C         -8.831476   0.017578   1.944935 C.2        1 UNL1     0.1740
     15 C         -9.538621   0.025946   3.268349 C.3        1 UNL1     0.0520
     16 C         -8.685105   0.797023   4.2658 C.3        1 UNL1     0.1322
     17 O         -7.390451   0.175149   4.421408 O.3        1 UNL1     -0.4828
     18 C         -8.637374   2.303732   4.000705 C.ar        1 UNL1     -0.0067
     19 C         -9.269737   3.18568   4.900982 C.ar        1 UNL1     -0.0516
     20 C         -9.285665   4.565259   4.663348 C.ar        1 UNL1     -0.0198
     21 C         -8.680518   5.073455   3.527847 C.ar        1 UNL1     0.1169
     22 C         -8.020872   4.233701   2.639861 C.ar        1 UNL1     -0.0198
     23 C         -7.988875   2.855997   2.886773 C.ar        1 UNL1     -0.0516
     24 O         -8.74902   6.418227   3.310371 O.3        1 UNL1     -0.5068
     25 O         -9.462668   0.088577   0.893726 O.2        1 UNL1     -0.2917
     26 O         -7.136643   -0.405584   -0.376683 O.3        1 UNL1     -0.5058
     27 O         -0.238809   -0.302885   2.530052 O.3        1 UNL1     -0.3648
     28 O         0.219345   -1.93145   -0.657432 O.3        1 UNL1     -0.3841
     29 O         -2.450111   0.426055   -0.24875 O.3        1 UNL1     -0.3863
     30 O         -2.526147   -3.245742   -0.35937 O.3        1 UNL1     -0.3829
     31 H         0.575848   -1.939982   1.733665 H        1 UNL1     0.0937
     32 H         0.0   0.0   0.0 H        1 UNL1     0.0671
     33 H         -1.892525   -1.086553   -1.467296 H        1 UNL1     0.0649
     34 H         -3.886046   -1.74503   -0.026991 H        1 UNL1     0.0683
     35 H         -3.273579   -2.957684   2.014725 H        1 UNL1     0.1085
     36 H         -4.672468   -0.886603   0.074728 H        1 UNL1     0.0691
     37 H         -4.897219   -0.371023   4.354198 H        1 UNL1     0.0691
     38 H         -9.667943   -1.015611   3.581335 H        1 UNL1     0.0385
     39 H         -10.531499   0.47092   3.141974 H        1 UNL1     0.0385
     40 H         -9.161128   0.690055   5.249914 H        1 UNL1     0.0789
     41 H         -9.759749   2.810711   5.794815 H        1 UNL1     0.0623
     42 H         -9.786847   5.233821   5.358944 H        1 UNL1     0.0654
     43 H         -7.530754   4.622696   1.75534 H        1 UNL1     0.0654
     44 H         -7.455444   2.230599   2.177425 H        1 UNL1     0.0623
     45 H         -7.908149   6.816917   3.587316 H        1 UNL1     0.2921
     46 H         -8.017994   -0.809634   -0.339608 H        1 UNL1     0.2922
     47 H         0.089546   -0.607909   3.387375 H        1 UNL1     0.2126
     48 H         1.17022   -1.80328   -0.475382 H        1 UNL1     0.2101
     49 H         -2.998644   0.482926   0.549794 H        1 UNL1     0.2100
     50 H         -1.991549   -3.748075   0.28992 H        1 UNL1     0.2102
@<TRIPOS>BOND
     1     1     2    1
     2     1     6    1
     3     2     3    1
     4     3     4    1
     5     3    29    1
     6     3    33    1
     7     4     5    1
     8     5     6    1
     9     5     7    1
    10     5    35    1
    11     7     8    1
    12     8     9   ar
    13     8    13   ar
    14     9    10   ar
    15     9    36    1
    16    10    11   ar
    17    10    26    1
    18    11    12   ar
    19    11    14    1
    20    12    13   ar
    21    12    17    1
    22    13    37    1
    23    14    15    1
    24    14    25    2
    25    15    16    1
    26    15    38    1
    27    15    39    1
    28    16    17    1
    29    16    18    1
    30    16    40    1
    31    18    19   ar
    32    18    23   ar
    33    19    20   ar
    34    19    41    1
    35    20    21   ar
    36    20    42    1
    37    21    22   ar
    38    21    24    1
    39    22    23   ar
    40    22    43    1
    41    23    44    1
    42    24    45    1
    43    26    46    1
    44    27    47    1
    45    28    48    1
    46    29    49    1
    47    30    50    1
    48     1    31    1
    49     1    27    1
    50     2    32    1
    51     2    28    1
    52     4    34    1
    53     4    30    1
