@<TRIPOS>MOLECULE
*****
 50 53 0 0 0
SMALL
GASTEIGER

@<TRIPOS>ATOM
     1 C         -0.331902   -1.32928   1.701076 C.3        1 UNL1     0.1889
     2 C         -0.460444   -0.976536   0.19476 C.3        1 UNL1     0.1342
     3 C         -1.900316   -0.96745   -0.341104 C.3        1 UNL1     0.1174
     4 C         -2.78526   -2.028921   0.317128 C.3        1 UNL1     0.1456
     5 C         -2.636416   -2.054026   1.849309 C.3        1 UNL1     0.2326
     6 O         -1.271644   -2.268816   2.201629 O.3        1 UNL1     -0.3076
     7 O         -3.215333   -0.908436   2.500309 O.3        1 UNL1     -0.4605
     8 C         -3.726677   -1.125198   3.767222 C.ar        1 UNL1     0.1310
     9 C         -4.540934   -2.200256   4.139429 C.ar        1 UNL1     0.0226
     10 C         -4.9958   -2.341806   5.455849 C.ar        1 UNL1     0.1343
     11 C         -4.627503   -1.423721   6.438355 C.ar        1 UNL1     0.1007
     12 C         -3.848512   -0.323653   6.069835 C.ar        1 UNL1     0.1389
     13 C         -3.393455   -0.18012   4.745542 C.ar        1 UNL1     0.0229
     14 C         -5.010237   -1.570536   7.861771 C.2        1 UNL1     0.1740
     15 C         -4.345348   -0.620604   8.81419 C.3        1 UNL1     0.0520
     16 C         -4.278425   0.751555   8.157944 C.3        1 UNL1     0.1322
     17 O         -3.517599   0.696652   6.931079 O.3        1 UNL1     -0.4828
     18 C         -5.639217   1.440507   8.03021 C.ar        1 UNL1     -0.0067
     19 C         -6.017625   2.002371   6.793549 C.ar        1 UNL1     -0.0516
     20 C         -7.234394   2.680798   6.655084 C.ar        1 UNL1     -0.0198
     21 C         -8.076293   2.810263   7.745164 C.ar        1 UNL1     0.1169
     22 C         -7.74662   2.238888   8.967328 C.ar        1 UNL1     -0.0198
     23 C         -6.538346   1.544488   9.10126 C.ar        1 UNL1     -0.0516
     24 O         -9.235503   3.510311   7.582175 O.3        1 UNL1     -0.5068
     25 O         -5.757481   -2.454139   8.273302 O.2        1 UNL1     -0.2917
     26 O         -5.787897   -3.412144   5.753415 O.3        1 UNL1     -0.5058
     27 O         -0.230901   -0.19088   2.541689 O.3        1 UNL1     -0.3648
     28 O         0.273858   -1.95313   -0.566667 O.3        1 UNL1     -0.3841
     29 O         -2.461071   0.34481   -0.265861 O.3        1 UNL1     -0.3863
     30 O         -2.433603   -3.328828   -0.204668 O.3        1 UNL1     -0.3829
     31 H         0.629779   -1.839832   1.821846 H        1 UNL1     0.0937
     32 H         0.0   0.0   0.0 H        1 UNL1     0.0671
     33 H         -1.860746   -1.206812   -1.412953 H        1 UNL1     0.0649
     34 H         -3.835335   -1.853101   0.058612 H        1 UNL1     0.0683
     35 H         -3.189529   -2.951257   2.15414 H        1 UNL1     0.1085
     36 H         -4.816204   -2.97765   3.435153 H        1 UNL1     0.0691
     37 H         -2.789168   0.685857   4.483979 H        1 UNL1     0.0691
     38 H         -3.342366   -1.008192   9.022347 H        1 UNL1     0.0385
     39 H         -4.907158   -0.602989   9.754316 H        1 UNL1     0.0385
     40 H         -3.686267   1.398238   8.819511 H        1 UNL1     0.0789
     41 H         -5.370168   1.922289   5.925197 H        1 UNL1     0.0623
     42 H         -7.509492   3.119978   5.699337 H        1 UNL1     0.0654
     43 H         -8.405465   2.321319   9.823504 H        1 UNL1     0.0654
     44 H         -6.31769   1.101689   10.067741 H        1 UNL1     0.0623
     45 H         -9.011373   4.418147   7.320802 H        1 UNL1     0.2921
     46 H         -5.383336   -3.924349   6.47132 H        1 UNL1     0.2922
     47 H         0.511352   0.364591   2.265334 H        1 UNL1     0.2126
     48 H         1.205975   -1.885559   -0.283252 H        1 UNL1     0.2101
     49 H         -2.022377   0.928315   -0.905285 H        1 UNL1     0.2100
     50 H         -2.665066   -3.344359   -1.156454 H        1 UNL1     0.2102
@<TRIPOS>BOND
     1     1     2    1
     2     1     6    1
     3     2     3    1
     4     3     4    1
     5     3    29    1
     6     3    33    1
     7     4     5    1
     8     5     6    1
     9     5     7    1
    10     5    35    1
    11     7     8    1
    12     8     9   ar
    13     8    13   ar
    14     9    10   ar
    15     9    36    1
    16    10    11   ar
    17    10    26    1
    18    11    12   ar
    19    11    14    1
    20    12    13   ar
    21    12    17    1
    22    13    37    1
    23    14    15    1
    24    14    25    2
    25    15    16    1
    26    15    38    1
    27    15    39    1
    28    16    17    1
    29    16    18    1
    30    16    40    1
    31    18    19   ar
    32    18    23   ar
    33    19    20   ar
    34    19    41    1
    35    20    21   ar
    36    20    42    1
    37    21    22   ar
    38    21    24    1
    39    22    23   ar
    40    22    43    1
    41    23    44    1
    42    24    45    1
    43    26    46    1
    44    27    47    1
    45    28    48    1
    46    29    49    1
    47    30    50    1
    48     1    31    1
    49     1    27    1
    50     2    32    1
    51     2    28    1
    52     4    34    1
    53     4    30    1
