@<TRIPOS>MOLECULE
*****
 50 53 0 0 0
SMALL
GASTEIGER

@<TRIPOS>ATOM
     1 C         -0.928887   0.72507   1.839089 C.3        1 UNL1     0.1889
     2 C         -0.875222   0.592915   0.293257 C.3        1 UNL1     0.1342
     3 C         -0.851717   1.929417   -0.464157 C.3        1 UNL1     0.1174
     4 C         -1.681128   3.016343   0.224165 C.3        1 UNL1     0.1456
     5 C         -1.411526   3.094637   1.737951 C.3        1 UNL1     0.2326
     6 O         -1.666202   1.829023   2.343122 O.3        1 UNL1     -0.3076
     7 O         -0.113994   3.626131   2.062364 O.3        1 UNL1     -0.4605
     8 C         0.187561   4.862472   1.520096 C.ar        1 UNL1     0.1310
     9 C         1.432591   5.239732   1.005435 C.ar        1 UNL1     0.0226
     10 C         1.63463   6.513309   0.460382 C.ar        1 UNL1     0.1343
     11 C         0.588993   7.43321   0.395058 C.ar        1 UNL1     0.1007
     12 C         -0.647752   7.08251   0.943013 C.ar        1 UNL1     0.1389
     13 C         -0.849922   5.80281   1.493399 C.ar        1 UNL1     0.0229
     14 C         0.724122   8.761833   -0.245766 C.2        1 UNL1     0.1740
     15 C         -0.552892   9.529019   -0.425237 C.3        1 UNL1     0.0520
     16 C         -1.405799   9.343454   0.822189 C.3        1 UNL1     0.1322
     17 O         -1.713953   7.947365   1.029668 O.3        1 UNL1     -0.4828
     18 C         -0.856303   10.062084   2.056834 C.ar        1 UNL1     -0.0067
     19 C         0.531469   10.285812   2.16751 C.ar        1 UNL1     -0.0516
     20 C         1.071982   10.897577   3.304854 C.ar        1 UNL1     -0.0198
     21 C         0.238001   11.282675   4.339263 C.ar        1 UNL1     0.1169
     22 C         -1.136331   11.106103   4.245067 C.ar        1 UNL1     -0.0198
     23 C         -1.679032   10.511105   3.099856 C.ar        1 UNL1     -0.0516
     24 O         0.804378   11.840973   5.447379 O.3        1 UNL1     -0.5068
     25 O         1.786179   9.196482   -0.683487 O.2        1 UNL1     -0.2917
     26 O         2.873044   6.819077   -0.023788 O.3        1 UNL1     -0.5058
     27 O         0.34202   0.616616   2.460232 O.3        1 UNL1     -0.3648
     28 O         -2.04306   -0.126687   -0.143818 O.3        1 UNL1     -0.3841
     29 O         0.49171   2.340603   -0.725426 O.3        1 UNL1     -0.3863
     30 O         -3.084184   2.744623   0.016097 O.3        1 UNL1     -0.3829
     31 H         -1.484477   -0.143907   2.208244 H        1 UNL1     0.0937
     32 H         0.0   0.0   -0.0 H        1 UNL1     0.0671
     33 H         -1.303267   1.76295   -1.45214 H        1 UNL1     0.0649
     34 H         -1.472357   3.990728   -0.231235 H        1 UNL1     0.0683
     35 H         -2.17946   3.785438   2.10802 H        1 UNL1     0.1085
     36 H         2.269869   4.551093   0.976079 H        1 UNL1     0.0691
     37 H         -1.821828   5.554807   1.914572 H        1 UNL1     0.0691
     38 H         -1.057347   9.129729   -1.311589 H        1 UNL1     0.0385
     39 H         -0.315829   10.581992   -0.611857 H        1 UNL1     0.0385
     40 H         -2.378621   9.812515   0.621893 H        1 UNL1     0.0789
     41 H         1.208229   9.984426   1.373273 H        1 UNL1     0.0623
     42 H         2.145023   11.053814   3.383499 H        1 UNL1     0.0654
     43 H         -1.800092   11.41762   5.042743 H        1 UNL1     0.0654
     44 H         -2.757987   10.398287   3.055445 H        1 UNL1     0.0623
     45 H         0.201483   11.712835   6.19759 H        1 UNL1     0.2921
     46 H         3.326281   7.410714   0.597464 H        1 UNL1     0.2922
     47 H         0.601298   -0.312606   2.532217 H        1 UNL1     0.2126
     48 H         -1.94963   -0.252393   -1.107769 H        1 UNL1     0.2101
     49 H         0.60825   3.269414   -0.46945 H        1 UNL1     0.2100
     50 H         -3.279167   2.877055   -0.934774 H        1 UNL1     0.2102
@<TRIPOS>BOND
     1     1     2    1
     2     1     6    1
     3     2     3    1
     4     3     4    1
     5     3    29    1
     6     3    33    1
     7     4     5    1
     8     5     6    1
     9     5     7    1
    10     5    35    1
    11     7     8    1
    12     8     9   ar
    13     8    13   ar
    14     9    10   ar
    15     9    36    1
    16    10    11   ar
    17    10    26    1
    18    11    12   ar
    19    11    14    1
    20    12    13   ar
    21    12    17    1
    22    13    37    1
    23    14    15    1
    24    14    25    2
    25    15    16    1
    26    15    38    1
    27    15    39    1
    28    16    17    1
    29    16    18    1
    30    16    40    1
    31    18    19   ar
    32    18    23   ar
    33    19    20   ar
    34    19    41    1
    35    20    21   ar
    36    20    42    1
    37    21    22   ar
    38    21    24    1
    39    22    23   ar
    40    22    43    1
    41    23    44    1
    42    24    45    1
    43    26    46    1
    44    27    47    1
    45    28    48    1
    46    29    49    1
    47    30    50    1
    48     1    31    1
    49     1    27    1
    50     2    32    1
    51     2    28    1
    52     4    34    1
    53     4    30    1
