@<TRIPOS>MOLECULE
*****
 50 53 0 0 0
SMALL
GASTEIGER

@<TRIPOS>ATOM
     1 C         -0.503152   -1.187419   1.762861 C.3        1 UNL1     0.1889
     2 C         -0.503647   -0.947309   0.229144 C.3        1 UNL1     0.1342
     3 C         -1.896657   -0.943779   -0.418911 C.3        1 UNL1     0.1174
     4 C         -2.861871   -1.930079   0.243427 C.3        1 UNL1     0.1456
     5 C         -2.833189   -1.842127   1.780244 C.3        1 UNL1     0.2326
     6 O         -1.507031   -2.062834   2.255071 O.3        1 UNL1     -0.3076
     7 O         -3.425769   -0.636477   2.296557 O.3        1 UNL1     -0.4605
     8 C         -4.040636   -0.743702   3.531048 C.ar        1 UNL1     0.1310
     9 C         -4.913892   -1.766988   3.915248 C.ar        1 UNL1     0.0226
     10 C         -5.474037   -1.796872   5.19792 C.ar        1 UNL1     0.1343
     11 C         -5.155504   -0.816154   6.136307 C.ar        1 UNL1     0.1007
     12 C         -4.316911   0.233211   5.751106 C.ar        1 UNL1     0.1389
     13 C         -3.755903   0.264469   4.460477 C.ar        1 UNL1     0.0229
     14 C         -5.652264   -0.844935   7.531497 C.2        1 UNL1     0.1740
     15 C         -5.034862   0.157934   8.461344 C.3        1 UNL1     0.0520
     16 C         -4.87511   1.474207   7.713105 C.3        1 UNL1     0.1322
     17 O         -4.023059   1.307531   6.55842 O.3        1 UNL1     -0.4828
     18 C         -6.200118   2.184783   7.426472 C.ar        1 UNL1     -0.0067
     19 C         -6.463691   2.660228   6.125436 C.ar        1 UNL1     -0.0516
     20 C         -7.644668   3.355949   5.84043 C.ar        1 UNL1     -0.0198
     21 C         -8.564572   3.588555   6.847157 C.ar        1 UNL1     0.1169
     22 C         -8.348725   3.103728   8.130587 C.ar        1 UNL1     -0.0198
     23 C         -7.176348   2.391951   8.411586 C.ar        1 UNL1     -0.0516
     24 O         -9.685621   4.302546   6.54078 O.3        1 UNL1     -0.5068
     25 O         -6.455955   -1.676041   7.94602 O.2        1 UNL1     -0.2917
     26 O         -6.319253   -2.821669   5.509346 O.3        1 UNL1     -0.5058
     27 O         -0.43311   0.008846   2.522354 O.3        1 UNL1     -0.3648
     28 O         0.257484   -1.996715   -0.397062 O.3        1 UNL1     -0.3841
     29 O         -2.421398   0.383739   -0.485822 O.3        1 UNL1     -0.3863
     30 O         -2.510478   -3.274151   -0.151138 O.3        1 UNL1     -0.3829
     31 H         0.430289   -1.710694   1.997273 H        1 UNL1     0.0937
     32 H         0.0   0.0   0.0 H        1 UNL1     0.0671
     33 H         -1.781339   -1.264927   -1.463557 H        1 UNL1     0.0649
     34 H         -3.882889   -1.748784   -0.110203 H        1 UNL1     0.0683
     35 H         -3.435311   -2.699737   2.105561 H        1 UNL1     0.1085
     36 H         -5.157099   -2.58862   3.250498 H        1 UNL1     0.0691
     37 H         -3.106889   1.09292   4.184898 H        1 UNL1     0.0691
     38 H         -4.063461   -0.237314   8.777073 H        1 UNL1     0.0385
     39 H         -5.667398   0.260755   9.34966 H        1 UNL1     0.0385
     40 H         -4.316796   2.154493   8.370386 H        1 UNL1     0.0789
     41 H         -5.753309   2.498482   5.319926 H        1 UNL1     0.0623
     42 H         -7.830925   3.727898   4.835953 H        1 UNL1     0.0654
     43 H         -9.069435   3.267172   8.922909 H        1 UNL1     0.0654
     44 H         -7.045289   2.018552   9.422646 H        1 UNL1     0.0623
     45 H         -9.414208   5.182466   6.232896 H        1 UNL1     0.2921
     46 H         -5.98834   -3.286914   6.293856 H        1 UNL1     0.2922
     47 H         0.344799   0.523409   2.265563 H        1 UNL1     0.2126
     48 H         1.166598   -1.930169   -0.04661 H        1 UNL1     0.2101
     49 H         -1.916929   0.905938   -1.129727 H        1 UNL1     0.2100
     50 H         -2.667758   -3.35641   -1.114574 H        1 UNL1     0.2102
@<TRIPOS>BOND
     1     1     2    1
     2     1     6    1
     3     2     3    1
     4     3     4    1
     5     3    29    1
     6     3    33    1
     7     4     5    1
     8     5     6    1
     9     5     7    1
    10     5    35    1
    11     7     8    1
    12     8     9   ar
    13     8    13   ar
    14     9    10   ar
    15     9    36    1
    16    10    11   ar
    17    10    26    1
    18    11    12   ar
    19    11    14    1
    20    12    13   ar
    21    12    17    1
    22    13    37    1
    23    14    15    1
    24    14    25    2
    25    15    16    1
    26    15    38    1
    27    15    39    1
    28    16    17    1
    29    16    18    1
    30    16    40    1
    31    18    19   ar
    32    18    23   ar
    33    19    20   ar
    34    19    41    1
    35    20    21   ar
    36    20    42    1
    37    21    22   ar
    38    21    24    1
    39    22    23   ar
    40    22    43    1
    41    23    44    1
    42    24    45    1
    43    26    46    1
    44    27    47    1
    45    28    48    1
    46    29    49    1
    47    30    50    1
    48     1    31    1
    49     1    27    1
    50     2    32    1
    51     2    28    1
    52     4    34    1
    53     4    30    1
