@<TRIPOS>MOLECULE
*****
 50 53 0 0 0
SMALL
GASTEIGER

@<TRIPOS>ATOM
     1 C         -0.329588   -1.380806   1.659986 C.3        1 UNL1     0.1889
     2 C         -0.466707   -0.978728   0.166844 C.3        1 UNL1     0.1342
     3 C         -1.910473   -0.94129   -0.357184 C.3        1 UNL1     0.1174
     4 C         -2.798825   -2.016571   0.273464 C.3        1 UNL1     0.1456
     5 C         -2.638605   -2.092178   1.802835 C.3        1 UNL1     0.2326
     6 O         -1.272958   -2.328715   2.13739 O.3        1 UNL1     -0.3076
     7 O         -3.203456   -0.963734   2.494845 O.3        1 UNL1     -0.4605
     8 C         -3.717565   -1.219659   3.753305 C.ar        1 UNL1     0.1310
     9 C         -4.536547   -2.303073   4.089137 C.ar        1 UNL1     0.0226
     10 C         -4.993963   -2.485661   5.399609 C.ar        1 UNL1     0.1343
     11 C         -4.623608   -1.601533   6.412029 C.ar        1 UNL1     0.1007
     12 C         -3.839799   -0.493104   6.080647 C.ar        1 UNL1     0.1389
     13 C         -3.382174   -0.308278   4.762372 C.ar        1 UNL1     0.0229
     14 C         -5.009075   -1.793153   7.829368 C.2        1 UNL1     0.1740
     15 C         -4.341962   -0.877378   8.813169 C.3        1 UNL1     0.0520
     16 C         -4.268723   0.515165   8.20209 C.3        1 UNL1     0.1322
     17 O         -3.506247   0.497287   6.97515 O.3        1 UNL1     -0.4828
     18 C         -5.626638   1.213246   8.094979 C.ar        1 UNL1     -0.0067
     19 C         -5.752   2.364378   7.290372 C.ar        1 UNL1     -0.0516
     20 C         -6.967448   3.054185   7.207817 C.ar        1 UNL1     -0.0198
     21 C         -8.060437   2.608218   7.929148 C.ar        1 UNL1     0.1169
     22 C         -7.977322   1.4586   8.703944 C.ar        1 UNL1     -0.0198
     23 C         -6.767091   0.758069   8.772161 C.ar        1 UNL1     -0.0516
     24 O         -9.216961   3.327351   7.853649 O.3        1 UNL1     -0.5068
     25 O         -5.760364   -2.686759   8.210837 O.2        1 UNL1     -0.2917
     26 O         -5.790654   -3.562012   5.661025 O.3        1 UNL1     -0.5058
     27 O         -0.213187   -0.270894   2.535961 O.3        1 UNL1     -0.3648
     28 O         0.254028   -1.935908   -0.631312 O.3        1 UNL1     -0.3841
     29 O         -2.460191   0.372144   -0.235396 O.3        1 UNL1     -0.3863
     30 O         -2.46147   -3.30166   -0.292601 O.3        1 UNL1     -0.3829
     31 H         0.628889   -1.902376   1.756755 H        1 UNL1     0.0937
     32 H         0.0   0.0   0.0 H        1 UNL1     0.0671
     33 H         -1.880913   -1.146288   -1.436453 H        1 UNL1     0.0649
     34 H         -3.849394   -1.824429   0.028948 H        1 UNL1     0.0683
     35 H         -3.196513   -2.994478   2.082965 H        1 UNL1     0.1085
     36 H         -4.813756   -3.056018   3.359514 H        1 UNL1     0.0691
     37 H         -2.774138   0.563386   4.530017 H        1 UNL1     0.0691
     38 H         -3.340808   -1.275475   9.009983 H        1 UNL1     0.0385
     39 H         -4.905131   -0.888205   9.752585 H        1 UNL1     0.0385
     40 H         -3.675072   1.137618   8.885208 H        1 UNL1     0.0789
     41 H         -4.906318   2.739892   6.721636 H        1 UNL1     0.0623
     42 H         -7.048203   3.947379   6.593249 H        1 UNL1     0.0654
     43 H         -8.831246   1.092011   9.261023 H        1 UNL1     0.0654
     44 H         -6.740953   -0.141986   9.378843 H        1 UNL1     0.0623
     45 H         -9.062051   4.199839   8.250493 H        1 UNL1     0.2921
     46 H         -5.401746   -4.08548   6.379456 H        1 UNL1     0.2922
     47 H         0.518364   0.298547   2.2595 H        1 UNL1     0.2126
     48 H         1.199065   -1.830616   -0.408709 H        1 UNL1     0.2101
     49 H         -2.027913   0.970538   -0.86536 H        1 UNL1     0.2100
     50 H         -2.726225   -3.294543   -1.23577 H        1 UNL1     0.2102
@<TRIPOS>BOND
     1     1     2    1
     2     1     6    1
     3     2     3    1
     4     3     4    1
     5     3    29    1
     6     3    33    1
     7     4     5    1
     8     5     6    1
     9     5     7    1
    10     5    35    1
    11     7     8    1
    12     8     9   ar
    13     8    13   ar
    14     9    10   ar
    15     9    36    1
    16    10    11   ar
    17    10    26    1
    18    11    12   ar
    19    11    14    1
    20    12    13   ar
    21    12    17    1
    22    13    37    1
    23    14    15    1
    24    14    25    2
    25    15    16    1
    26    15    38    1
    27    15    39    1
    28    16    17    1
    29    16    18    1
    30    16    40    1
    31    18    19   ar
    32    18    23   ar
    33    19    20   ar
    34    19    41    1
    35    20    21   ar
    36    20    42    1
    37    21    22   ar
    38    21    24    1
    39    22    23   ar
    40    22    43    1
    41    23    44    1
    42    24    45    1
    43    26    46    1
    44    27    47    1
    45    28    48    1
    46    29    49    1
    47    30    50    1
    48     1    31    1
    49     1    27    1
    50     2    32    1
    51     2    28    1
    52     4    34    1
    53     4    30    1
