@<TRIPOS>MOLECULE
*****
 50 53 0 0 0
SMALL
GASTEIGER

@<TRIPOS>ATOM
     1 C         -0.345163   -1.33614   1.693044 C.3        1 UNL1     0.1889
     2 C         -0.468872   -0.973726   0.18862 C.3        1 UNL1     0.1342
     3 C         -1.907954   -0.949472   -0.348896 C.3        1 UNL1     0.1174
     4 C         -2.802598   -2.007209   0.302198 C.3        1 UNL1     0.1456
     5 C         -2.655866   -2.042317   1.834386 C.3        1 UNL1     0.2326
     6 O         -1.293383   -2.270585   2.187094 O.3        1 UNL1     -0.3076
     7 O         -3.225943   -0.895638   2.491243 O.3        1 UNL1     -0.4605
     8 C         -3.747876   -1.117048   3.753024 C.ar        1 UNL1     0.1310
     9 C         -4.576655   -2.185806   4.111049 C.ar        1 UNL1     0.0226
     10 C         -5.041582   -2.333064   5.423323 C.ar        1 UNL1     0.1343
     11 C         -4.669245   -1.427405   6.415788 C.ar        1 UNL1     0.1007
     12 C         -3.875467   -0.333269   6.061434 C.ar        1 UNL1     0.1389
     13 C         -3.410277   -0.183964   4.741306 C.ar        1 UNL1     0.0229
     14 C         -5.062794   -1.581637   7.835465 C.2        1 UNL1     0.1740
     15 C         -4.393335   -0.647264   8.799997 C.3        1 UNL1     0.0520
     16 C         -4.306623   0.729433   8.15568 C.3        1 UNL1     0.1322
     17 O         -3.538569   0.67603   6.933261 O.3        1 UNL1     -0.4828
     18 C         -5.658662   1.434878   8.025059 C.ar        1 UNL1     -0.0067
     19 C         -5.754359   2.809471   8.324308 C.ar        1 UNL1     -0.0516
     20 C         -6.984701   3.474454   8.260927 C.ar        1 UNL1     -0.0198
     21 C         -8.125338   2.775967   7.907529 C.ar        1 UNL1     0.1169
     22 C         -8.057398   1.429314   7.574742 C.ar        1 UNL1     -0.0198
     23 C         -6.824068   0.768337   7.620156 C.ar        1 UNL1     -0.0516
     24 O         -9.311974   3.448346   7.893311 O.3        1 UNL1     -0.5068
     25 O         -5.82265   -2.460047   8.234839 O.2        1 UNL1     -0.2917
     26 O         -5.847669   -3.396736   5.706892 O.3        1 UNL1     -0.5058
     27 O         -0.235642   -0.20345   2.540278 O.3        1 UNL1     -0.3648
     28 O         0.25814   -1.952094   -0.57751 O.3        1 UNL1     -0.3841
     29 O         -2.457756   0.367004   -0.26681 O.3        1 UNL1     -0.3863
     30 O         -2.461229   -3.307024   -0.226611 O.3        1 UNL1     -0.3829
     31 H         0.612045   -1.855441   1.812034 H        1 UNL1     0.0937
     32 H         0.0   0.0   0.0 H        1 UNL1     0.0671
     33 H         -1.86907   -1.183031   -1.422049 H        1 UNL1     0.0649
     34 H         -3.850838   -1.821092   0.043444 H        1 UNL1     0.0683
     35 H         -3.216874   -2.936593   2.133419 H        1 UNL1     0.1085
     36 H         -4.856174   -2.954152   3.398566 H        1 UNL1     0.0691
     37 H         -2.794534   0.677208   4.490836 H        1 UNL1     0.0691
     38 H         -3.396177   -1.047965   9.011281 H        1 UNL1     0.0385
     39 H         -4.960964   -0.631038   9.736647 H        1 UNL1     0.0385
     40 H         -3.711451   1.363825   8.826379 H        1 UNL1     0.0789
     41 H         -4.875187   3.378042   8.613161 H        1 UNL1     0.0623
     42 H         -7.047556   4.531912   8.505558 H        1 UNL1     0.0654
     43 H         -8.941922   0.876247   7.28209 H        1 UNL1     0.0654
     44 H         -6.806045   -0.281426   7.343538 H        1 UNL1     0.0623
     45 H         -9.488308   3.778238   8.789299 H        1 UNL1     0.2921
     46 H         -5.454879   -3.917993   6.424818 H        1 UNL1     0.2922
     47 H         0.508966   0.349567   2.26534 H        1 UNL1     0.2126
     48 H         1.193863   -1.879811   -0.307455 H        1 UNL1     0.2101
     49 H         -2.019285   0.948353   -0.908348 H        1 UNL1     0.2100
     50 H         -2.69687   -3.317074   -1.177445 H        1 UNL1     0.2102
@<TRIPOS>BOND
     1     1     2    1
     2     1     6    1
     3     2     3    1
     4     3     4    1
     5     3    29    1
     6     3    33    1
     7     4     5    1
     8     5     6    1
     9     5     7    1
    10     5    35    1
    11     7     8    1
    12     8     9   ar
    13     8    13   ar
    14     9    10   ar
    15     9    36    1
    16    10    11   ar
    17    10    26    1
    18    11    12   ar
    19    11    14    1
    20    12    13   ar
    21    12    17    1
    22    13    37    1
    23    14    15    1
    24    14    25    2
    25    15    16    1
    26    15    38    1
    27    15    39    1
    28    16    17    1
    29    16    18    1
    30    16    40    1
    31    18    19   ar
    32    18    23   ar
    33    19    20   ar
    34    19    41    1
    35    20    21   ar
    36    20    42    1
    37    21    22   ar
    38    21    24    1
    39    22    23   ar
    40    22    43    1
    41    23    44    1
    42    24    45    1
    43    26    46    1
    44    27    47    1
    45    28    48    1
    46    29    49    1
    47    30    50    1
    48     1    31    1
    49     1    27    1
    50     2    32    1
    51     2    28    1
    52     4    34    1
    53     4    30    1
