@<TRIPOS>MOLECULE
*****
 50 53 0 0 0
SMALL
GASTEIGER

@<TRIPOS>ATOM
     1 C         -0.345569   -1.336324   1.692815 C.3        1 UNL1     0.1889
     2 C         -0.469086   -0.973659   0.188436 C.3        1 UNL1     0.1342
     3 C         -1.90812   -0.94903   -0.349189 C.3        1 UNL1     0.1174
     4 C         -2.803032   -2.006681   0.301675 C.3        1 UNL1     0.1456
     5 C         -2.656428   -2.042051   1.833869 C.3        1 UNL1     0.2326
     6 O         -1.29402   -2.27065   2.186649 O.3        1 UNL1     -0.3076
     7 O         -3.226322   -0.895355   2.490854 O.3        1 UNL1     -0.4605
     8 C         -3.741606   -1.115232   3.755632 C.ar        1 UNL1     0.1310
     9 C         -4.554538   -2.192823   4.123382 C.ar        1 UNL1     0.0226
     10 C         -5.013703   -2.337423   5.437977 C.ar        1 UNL1     0.1343
     11 C         -4.651128   -1.419889   6.423123 C.ar        1 UNL1     0.1007
     12 C         -3.873535   -0.31738   6.058971 C.ar        1 UNL1     0.1389
     13 C         -3.414156   -0.170784   4.736507 C.ar        1 UNL1     0.0229
     14 C         -5.038527   -1.569736   7.84496 C.2        1 UNL1     0.1740
     15 C         -4.379335   -0.619587   8.801114 C.3        1 UNL1     0.0520
     16 C         -4.313453   0.753697   8.14712 C.3        1 UNL1     0.1322
     17 O         -3.548166   0.702461   6.922874 O.3        1 UNL1     -0.4828
     18 C         -5.675468   1.43951   8.015584 C.ar        1 UNL1     -0.0067
     19 C         -6.049717   2.004727   6.779186 C.ar        1 UNL1     -0.0516
     20 C         -7.267634   2.680432   6.637541 C.ar        1 UNL1     -0.0198
     21 C         -8.114837   2.803841   7.724207 C.ar        1 UNL1     0.1169
     22 C         -7.789232   2.229035   8.945853 C.ar        1 UNL1     -0.0198
     23 C         -6.579747   1.537351   9.082871 C.ar        1 UNL1     -0.0516
     24 O         -9.275142   3.501404   7.558378 O.3        1 UNL1     -0.5068
     25 O         -5.785055   -2.455767   8.252551 O.2        1 UNL1     -0.2917
     26 O         -5.804223   -3.41013   5.731172 O.3        1 UNL1     -0.5058
     27 O         -0.235883   -0.203785   2.540229 O.3        1 UNL1     -0.3648
     28 O         0.257787   -1.95206   -0.577784 O.3        1 UNL1     -0.3841
     29 O         -2.45766   0.367547   -0.266948 O.3        1 UNL1     -0.3863
     30 O         -2.461887   -3.306486   -0.227304 O.3        1 UNL1     -0.3829
     31 H         0.611523   -1.855839   1.811802 H        1 UNL1     0.0937
     32 H         0.0   0.0   0.0 H        1 UNL1     0.0671
     33 H         -1.869199   -1.182434   -1.422375 H        1 UNL1     0.0649
     34 H         -3.851213   -1.820311   0.042866 H        1 UNL1     0.0683
     35 H         -3.217643   -2.936257   2.132723 H        1 UNL1     0.1085
     36 H         -4.825415   -2.969849   3.416999 H        1 UNL1     0.0691
     37 H         -2.811072   0.697051   4.478351 H        1 UNL1     0.0691
     38 H         -3.376148   -1.005029   9.012249 H        1 UNL1     0.0385
     39 H         -4.944503   -0.60473   9.739273 H        1 UNL1     0.0385
     40 H         -3.725221   1.40085   8.811723 H        1 UNL1     0.0789
     41 H         -5.398094   1.929408   5.913527 H        1 UNL1     0.0623
     42 H         -7.53953   3.12225   5.682092 H        1 UNL1     0.0654
     43 H         -8.452193   2.306716   9.799292 H        1 UNL1     0.0654
     44 H         -6.362331   1.091734   10.04879 H        1 UNL1     0.0623
     45 H         -9.052036   4.413247   7.310422 H        1 UNL1     0.2921
     46 H         -5.402259   -3.920955   6.451516 H        1 UNL1     0.2922
     47 H         0.508859   0.349121   2.265433 H        1 UNL1     0.2126
     48 H         1.193503   -1.880009   -0.307645 H        1 UNL1     0.2101
     49 H         -2.01902   0.948903   -0.908364 H        1 UNL1     0.2100
     50 H         -2.697455   -3.316345   -1.178158 H        1 UNL1     0.2102
@<TRIPOS>BOND
     1     1     2    1
     2     1     6    1
     3     2     3    1
     4     3     4    1
     5     3    29    1
     6     3    33    1
     7     4     5    1
     8     5     6    1
     9     5     7    1
    10     5    35    1
    11     7     8    1
    12     8     9   ar
    13     8    13   ar
    14     9    10   ar
    15     9    36    1
    16    10    11   ar
    17    10    26    1
    18    11    12   ar
    19    11    14    1
    20    12    13   ar
    21    12    17    1
    22    13    37    1
    23    14    15    1
    24    14    25    2
    25    15    16    1
    26    15    38    1
    27    15    39    1
    28    16    17    1
    29    16    18    1
    30    16    40    1
    31    18    19   ar
    32    18    23   ar
    33    19    20   ar
    34    19    41    1
    35    20    21   ar
    36    20    42    1
    37    21    22   ar
    38    21    24    1
    39    22    23   ar
    40    22    43    1
    41    23    44    1
    42    24    45    1
    43    26    46    1
    44    27    47    1
    45    28    48    1
    46    29    49    1
    47    30    50    1
    48     1    31    1
    49     1    27    1
    50     2    32    1
    51     2    28    1
    52     4    34    1
    53     4    30    1
