@<TRIPOS>MOLECULE
*****
 50 53 0 0 0
SMALL
GASTEIGER

@<TRIPOS>ATOM
     1 C         -0.969161   1.177406   -1.563728 C.3        1 UNL1     0.1889
     2 C         0.110096   0.172934   -1.077745 C.3        1 UNL1     0.1342
     3 C         1.557756   0.594853   -1.372246 C.3        1 UNL1     0.1174
     4 C         1.697847   1.351872   -2.695277 C.3        1 UNL1     0.1456
     5 C         0.628882   2.446831   -2.864819 C.3        1 UNL1     0.2326
     6 O         -0.673198   1.874585   -2.764871 O.3        1 UNL1     -0.3076
     7 O         0.819922   3.574575   -1.991309 O.3        1 UNL1     -0.4605
     8 C         -0.098194   3.709108   -0.965399 C.ar        1 UNL1     0.1310
     9 C         -0.129054   2.936997   0.200874 C.ar        1 UNL1     0.0226
     10 C         -1.091337   3.161927   1.1925 C.ar        1 UNL1     0.1343
     11 C         -2.032314   4.181143   1.052499 C.ar        1 UNL1     0.1007
     12 C         -2.037172   4.931924   -0.126097 C.ar        1 UNL1     0.1389
     13 C         -1.071151   4.703823   -1.124197 C.ar        1 UNL1     0.0229
     14 C         -3.018282   4.517122   2.105656 C.2        1 UNL1     0.1740
     15 C         -3.801414   5.777649   1.883558 C.3        1 UNL1     0.0520
     16 C         -4.170113   5.862262   0.408817 C.3        1 UNL1     0.1322
     17 O         -2.984081   5.886791   -0.41568 O.3        1 UNL1     -0.4828
     18 C         -5.221895   4.837617   -0.023133 C.ar        1 UNL1     -0.0067
     19 C         -6.509117   4.882532   0.550676 C.ar        1 UNL1     -0.0516
     20 C         -7.479597   3.931625   0.213178 C.ar        1 UNL1     -0.0198
     21 C         -7.173613   2.928713   -0.689247 C.ar        1 UNL1     0.1169
     22 C         -5.92554   2.87788   -1.296345 C.ar        1 UNL1     -0.0198
     23 C         -4.960842   3.839556   -0.972933 C.ar        1 UNL1     -0.0516
     24 O         -8.131904   1.998077   -0.964919 O.3        1 UNL1     -0.5068
     25 O         -3.14964   3.868753   3.140473 O.2        1 UNL1     -0.2917
     26 O         -1.067635   2.373189   2.305566 O.3        1 UNL1     -0.5058
     27 O         -1.422738   2.05603   -0.546342 O.3        1 UNL1     -0.3648
     28 O         -0.110968   -1.088103   -1.736244 O.3        1 UNL1     -0.3841
     29 O         2.113339   1.307624   -0.26526 O.3        1 UNL1     -0.3863
     30 O         1.582677   0.417339   -3.790299 O.3        1 UNL1     -0.3829
     31 H         -1.853666   0.585229   -1.822677 H        1 UNL1     0.0937
     32 H         0.0   0.0   0.0 H        1 UNL1     0.0671
     33 H         2.16141   -0.318929   -1.463489 H        1 UNL1     0.0649
     34 H         2.693246   1.804553   -2.763553 H        1 UNL1     0.0683
     35 H         0.752565   2.778717   -3.903295 H        1 UNL1     0.1085
     36 H         0.60939   2.166713   0.394476 H        1 UNL1     0.0691
     37 H         -1.097142   5.301265   -2.032977 H        1 UNL1     0.0691
     38 H         -3.16619   6.618894   2.180753 H        1 UNL1     0.0385
     39 H         -4.684605   5.770362   2.531399 H        1 UNL1     0.0385
     40 H         -4.636879   6.843418   0.247625 H        1 UNL1     0.0789
     41 H         -6.771154   5.654362   1.268496 H        1 UNL1     0.0623
     42 H         -8.46475   3.969886   0.671459 H        1 UNL1     0.0654
     43 H         -5.680266   2.105679   -2.015689 H        1 UNL1     0.0654
     44 H         -3.999891   3.775759   -1.474278 H        1 UNL1     0.0623
     45 H         -8.227447   1.932519   -1.928916 H        1 UNL1     0.2921
     46 H         -0.656301   2.859144   3.03773 H        1 UNL1     0.2922
     47 H         -0.670047   2.436605   -0.072549 H        1 UNL1     0.2126
     48 H         0.090428   -0.949032   -2.68167 H        1 UNL1     0.2101
     49 H         2.739776   0.74026   0.211676 H        1 UNL1     0.2100
     50 H         1.126789   0.872426   -4.528387 H        1 UNL1     0.2102
@<TRIPOS>BOND
     1     1     2    1
     2     1     6    1
     3     2     3    1
     4     3     4    1
     5     3    29    1
     6     3    33    1
     7     4     5    1
     8     5     6    1
     9     5     7    1
    10     5    35    1
    11     7     8    1
    12     8     9   ar
    13     8    13   ar
    14     9    10   ar
    15     9    36    1
    16    10    11   ar
    17    10    26    1
    18    11    12   ar
    19    11    14    1
    20    12    13   ar
    21    12    17    1
    22    13    37    1
    23    14    15    1
    24    14    25    2
    25    15    16    1
    26    15    38    1
    27    15    39    1
    28    16    17    1
    29    16    18    1
    30    16    40    1
    31    18    19   ar
    32    18    23   ar
    33    19    20   ar
    34    19    41    1
    35    20    21   ar
    36    20    42    1
    37    21    22   ar
    38    21    24    1
    39    22    23   ar
    40    22    43    1
    41    23    44    1
    42    24    45    1
    43    26    46    1
    44    27    47    1
    45    28    48    1
    46    29    49    1
    47    30    50    1
    48     1    31    1
    49     1    27    1
    50     2    32    1
    51     2    28    1
    52     4    34    1
    53     4    30    1
