@<TRIPOS>MOLECULE
*****
 50 53 0 0 0
SMALL
GASTEIGER

@<TRIPOS>ATOM
     1 C         -0.353818   -1.342794   1.685978 C.3        1 UNL1     0.1889
     2 C         -0.469344   -0.974706   0.182281 C.3        1 UNL1     0.1342
     3 C         -1.905417   -0.949215   -0.363163 C.3        1 UNL1     0.1174
     4 C         -2.803058   -2.00994   0.278884 C.3        1 UNL1     0.1456
     5 C         -2.664858   -2.050819   1.811722 C.3        1 UNL1     0.2326
     6 O         -1.30423   -2.279658   2.171155 O.3        1 UNL1     -0.3076
     7 O         -3.239266   -0.906981   2.469759 O.3        1 UNL1     -0.4605
     8 C         -3.771485   -1.134302   3.726181 C.ar        1 UNL1     0.1310
     9 C         -4.603969   -2.20415   4.072154 C.ar        1 UNL1     0.0226
     10 C         -5.079528   -2.357622   5.379897 C.ar        1 UNL1     0.1343
     11 C         -4.71444   -1.457286   6.37987 C.ar        1 UNL1     0.1007
     12 C         -3.916966   -0.36205   6.037415 C.ar        1 UNL1     0.1389
     13 C         -3.441078   -0.206491   4.721831 C.ar        1 UNL1     0.0229
     14 C         -5.119493   -1.618333   7.79555 C.2        1 UNL1     0.1740
     15 C         -4.457046   -0.689394   8.770119 C.3        1 UNL1     0.0520
     16 C         -4.364061   0.690456   8.133468 C.3        1 UNL1     0.1322
     17 O         -3.586265   0.642562   6.916994 O.3        1 UNL1     -0.4828
     18 C         -5.714441   1.39769   7.995566 C.ar        1 UNL1     -0.0067
     19 C         -6.06057   1.995945   6.766542 C.ar        1 UNL1     -0.0516
     20 C         -7.266853   2.691329   6.620647 C.ar        1 UNL1     -0.0198
     21 C         -8.130235   2.801608   7.695932 C.ar        1 UNL1     0.1169
     22 C         -7.832622   2.19477   8.909198 C.ar        1 UNL1     -0.0198
     23 C         -6.634905   1.483634   9.049963 C.ar        1 UNL1     -0.0516
     24 O         -9.278226   3.518602   7.527302 O.3        1 UNL1     -0.5068
     25 O         -5.883234   -2.498102   8.184382 O.2        1 UNL1     -0.2917
     26 O         -5.888719   -3.422028   5.651625 O.3        1 UNL1     -0.5058
     27 O         -0.249693   -0.213288   2.538128 O.3        1 UNL1     -0.3648
     28 O         0.262509   -1.949727   -0.583508 O.3        1 UNL1     -0.3841
     29 O         -2.456445   0.366626   -0.279123 O.3        1 UNL1     -0.3863
     30 O         -2.457978   -3.30753   -0.25297 O.3        1 UNL1     -0.3829
     31 H         0.603017   -1.862003   1.808326 H        1 UNL1     0.0937
     32 H         0.0   0.0   0.0 H        1 UNL1     0.0671
     33 H         -1.860408   -1.17865   -1.436967 H        1 UNL1     0.0649
     34 H         -3.849947   -1.82343   0.014994 H        1 UNL1     0.0683
     35 H         -3.226999   -2.946548   2.104202 H        1 UNL1     0.1085
     36 H         -4.878378   -2.968663   3.353586 H        1 UNL1     0.0691
     37 H         -2.822654   0.655412   4.480652 H        1 UNL1     0.0691
     38 H         -3.461937   -1.091995   8.98737 H        1 UNL1     0.0385
     39 H         -5.032158   -0.677407   9.702256 H        1 UNL1     0.0385
     40 H         -3.773781   1.320961   8.812109 H        1 UNL1     0.0789
     41 H         -5.395748   1.931396   5.910098 H        1 UNL1     0.0623
     42 H         -7.516956   3.158437   5.671295 H        1 UNL1     0.0654
     43 H         -8.508546   2.262113   9.753296 H        1 UNL1     0.0654
     44 H         -6.439495   1.013236   10.008809 H        1 UNL1     0.0623
     45 H         -9.038943   4.437813   7.326027 H        1 UNL1     0.2921
     46 H         -5.502121   -3.947225   6.370041 H        1 UNL1     0.2922
     47 H         0.485922   0.349757   2.259363 H        1 UNL1     0.2126
     48 H         1.200072   -1.862392   -0.324508 H        1 UNL1     0.2101
     49 H         -2.014743   0.95067   -0.915979 H        1 UNL1     0.2100
     50 H         -2.688303   -3.314082   -1.205136 H        1 UNL1     0.2102
@<TRIPOS>BOND
     1     1     2    1
     2     1     6    1
     3     2     3    1
     4     3     4    1
     5     3    29    1
     6     3    33    1
     7     4     5    1
     8     5     6    1
     9     5     7    1
    10     5    35    1
    11     7     8    1
    12     8     9   ar
    13     8    13   ar
    14     9    10   ar
    15     9    36    1
    16    10    11   ar
    17    10    26    1
    18    11    12   ar
    19    11    14    1
    20    12    13   ar
    21    12    17    1
    22    13    37    1
    23    14    15    1
    24    14    25    2
    25    15    16    1
    26    15    38    1
    27    15    39    1
    28    16    17    1
    29    16    18    1
    30    16    40    1
    31    18    19   ar
    32    18    23   ar
    33    19    20   ar
    34    19    41    1
    35    20    21   ar
    36    20    42    1
    37    21    22   ar
    38    21    24    1
    39    22    23   ar
    40    22    43    1
    41    23    44    1
    42    24    45    1
    43    26    46    1
    44    27    47    1
    45    28    48    1
    46    29    49    1
    47    30    50    1
    48     1    31    1
    49     1    27    1
    50     2    32    1
    51     2    28    1
    52     4    34    1
    53     4    30    1
