@<TRIPOS>MOLECULE
*****
 50 53 0 0 0
SMALL
GASTEIGER

@<TRIPOS>ATOM
     1 C         -0.335394   -1.329904   1.699904 C.3        1 UNL1     0.1889
     2 C         -0.464197   -0.97488   0.194145 C.3        1 UNL1     0.1342
     3 C         -1.904624   -0.959307   -0.340077 C.3        1 UNL1     0.1174
     4 C         -2.79314   -2.017935   0.317923 C.3        1 UNL1     0.1456
     5 C         -2.642672   -2.045434   1.849904 C.3        1 UNL1     0.2326
     6 O         -1.278388   -2.26619   2.200428 O.3        1 UNL1     -0.3076
     7 O         -3.216184   -0.898258   2.502891 O.3        1 UNL1     -0.4605
     8 C         -3.727402   -1.11452   3.76994 C.ar        1 UNL1     0.1310
     9 C         -4.545909   -2.186603   4.141404 C.ar        1 UNL1     0.0226
     10 C         -5.00029   -2.327959   5.458013 C.ar        1 UNL1     0.1343
     11 C         -4.627292   -1.412744   6.441422 C.ar        1 UNL1     0.1007
     12 C         -3.843939   -0.315507   6.073707 C.ar        1 UNL1     0.1389
     13 C         -3.389366   -0.172158   4.749228 C.ar        1 UNL1     0.0229
     14 C         -5.009475   -1.559813   7.86496 C.2        1 UNL1     0.1740
     15 C         -4.339776   -0.61397   8.818078 C.3        1 UNL1     0.0520
     16 C         -4.267567   0.758758   8.163586 C.3        1 UNL1     0.1322
     17 O         -3.507989   0.702246   6.93602 O.3        1 UNL1     -0.4828
     18 C         -5.625526   1.453648   8.037885 C.ar        1 UNL1     -0.0067
     19 C         -6.001773   2.02038   6.802787 C.ar        1 UNL1     -0.0516
     20 C         -7.215755   2.704181   6.666308 C.ar        1 UNL1     -0.0198
     21 C         -8.056975   2.834188   7.756846 C.ar        1 UNL1     0.1169
     22 C         -7.729505   2.258185   8.977428 C.ar        1 UNL1     -0.0198
     23 C         -6.524084   1.558459   9.109333 C.ar        1 UNL1     -0.0516
     24 O         -9.213313   3.539439   7.595893 O.3        1 UNL1     -0.5068
     25 O         -5.760126   -2.440778   8.275944 O.2        1 UNL1     -0.2917
     26 O         -5.79668   -3.395317   5.754824 O.3        1 UNL1     -0.5058
     27 O         -0.22881   -0.192906   2.541725 O.3        1 UNL1     -0.3648
     28 O         0.265263   -1.953566   -0.569248 O.3        1 UNL1     -0.3841
     29 O         -2.459944   0.355136   -0.262672 O.3        1 UNL1     -0.3863
     30 O         -2.447369   -3.318652   -0.205783 O.3        1 UNL1     -0.3829
     31 H         0.624336   -1.844506   1.81899 H        1 UNL1     0.0937
     32 H         0.0   0.0   0.0 H        1 UNL1     0.0671
     33 H         -1.867238   -1.197576   -1.412247 H        1 UNL1     0.0649
     34 H         -3.842781   -1.837539   0.060801 H        1 UNL1     0.0683
     35 H         -3.19909   -2.940761   2.154318 H        1 UNL1     0.1085
     36 H         -4.825057   -2.961891   3.436333 H        1 UNL1     0.0691
     37 H         -2.781623   0.691591   4.488305 H        1 UNL1     0.0691
     38 H         -3.338278   -1.006087   9.024895 H        1 UNL1     0.0385
     39 H         -4.900734   -0.595212   9.758692 H        1 UNL1     0.0385
     40 H         -3.672125   1.402047   8.825513 H        1 UNL1     0.0789
     41 H         -5.35476   1.939961   5.934134 H        1 UNL1     0.0623
     42 H         -7.489161   3.147052   5.711779 H        1 UNL1     0.0654
     43 H         -8.387898   2.341032   9.833913 H        1 UNL1     0.0654
     44 H         -6.305132   1.112165   10.074593 H        1 UNL1     0.0623
     45 H         -8.985449   4.447325   7.337945 H        1 UNL1     0.2921
     46 H         -5.394311   -3.909503   6.472545 H        1 UNL1     0.2922
     47 H         0.515281   0.35995   2.26507 H        1 UNL1     0.2126
     48 H         1.198088   -1.889631   -0.287322 H        1 UNL1     0.2101
     49 H         -2.019659   0.937575   -0.901974 H        1 UNL1     0.2100
     50 H         -2.680292   -3.332249   -1.157242 H        1 UNL1     0.2102
@<TRIPOS>BOND
     1     1     2    1
     2     1     6    1
     3     2     3    1
     4     3     4    1
     5     3    29    1
     6     3    33    1
     7     4     5    1
     8     5     6    1
     9     5     7    1
    10     5    35    1
    11     7     8    1
    12     8     9   ar
    13     8    13   ar
    14     9    10   ar
    15     9    36    1
    16    10    11   ar
    17    10    26    1
    18    11    12   ar
    19    11    14    1
    20    12    13   ar
    21    12    17    1
    22    13    37    1
    23    14    15    1
    24    14    25    2
    25    15    16    1
    26    15    38    1
    27    15    39    1
    28    16    17    1
    29    16    18    1
    30    16    40    1
    31    18    19   ar
    32    18    23   ar
    33    19    20   ar
    34    19    41    1
    35    20    21   ar
    36    20    42    1
    37    21    22   ar
    38    21    24    1
    39    22    23   ar
    40    22    43    1
    41    23    44    1
    42    24    45    1
    43    26    46    1
    44    27    47    1
    45    28    48    1
    46    29    49    1
    47    30    50    1
    48     1    31    1
    49     1    27    1
    50     2    32    1
    51     2    28    1
    52     4    34    1
    53     4    30    1
