@<TRIPOS>MOLECULE
*****
 50 53 0 0 0
SMALL
GASTEIGER

@<TRIPOS>ATOM
     1 C         -0.445669   -1.425044   1.594188 C.3        1 UNL1     0.1889
     2 C         -0.524924   -0.956281   0.116379 C.3        1 UNL1     0.1342
     3 C         -1.951624   -0.81523   -0.435978 C.3        1 UNL1     0.1174
     4 C         -2.913703   -1.862252   0.130826 C.3        1 UNL1     0.1456
     5 C         -2.793831   -2.008118   1.658804 C.3        1 UNL1     0.2326
     6 O         -1.451896   -2.335714   2.012017 O.3        1 UNL1     -0.3076
     7 O         -3.310197   -0.877796   2.384793 O.3        1 UNL1     -0.4605
     8 C         -3.867224   -1.154055   3.620483 C.ar        1 UNL1     0.1310
     9 C         -4.753622   -2.201354   3.893914 C.ar        1 UNL1     0.0226
     10 C         -5.251144   -2.409787   5.185785 C.ar        1 UNL1     0.1343
     11 C         -4.855321   -1.589595   6.24146 C.ar        1 UNL1     0.1007
     12 C         -4.002723   -0.515507   5.972767 C.ar        1 UNL1     0.1389
     13 C         -3.504684   -0.30454   4.673197 C.ar        1 UNL1     0.0229
     14 C         -5.284037   -1.815441   7.641228 C.2        1 UNL1     0.1740
     15 C         -4.589555   -0.979534   8.675879 C.3        1 UNL1     0.0520
     16 C         -4.423638   0.429885   8.124548 C.3        1 UNL1     0.1322
     17 O         -3.634883   0.41752   6.914266 O.3        1 UNL1     -0.4828
     18 C         -5.737156   1.208342   8.017771 C.ar        1 UNL1     -0.0067
     19 C         -5.704663   2.580563   7.695024 C.ar        1 UNL1     -0.0516
     20 C         -6.883976   3.332679   7.635828 C.ar        1 UNL1     -0.0198
     21 C         -8.098659   2.727275   7.903897 C.ar        1 UNL1     0.1169
     22 C         -8.166197   1.370294   8.191782 C.ar        1 UNL1     -0.0198
     23 C         -6.988834   0.613869   8.232938 C.ar        1 UNL1     -0.0516
     24 O         -9.22222   3.500003   7.873832 O.3        1 UNL1     -0.5068
     25 O         -6.093234   -2.679102   7.969518 O.2        1 UNL1     -0.2917
     26 O         -6.113153   -3.448335   5.385643 O.3        1 UNL1     -0.5058
     27 O         -0.287402   -0.359606   2.517542 O.3        1 UNL1     -0.3648
     28 O         0.159176   -1.920436   -0.705277 O.3        1 UNL1     -0.3841
     29 O         -2.429113   0.521605   -0.271633 O.3        1 UNL1     -0.3863
     30 O         -2.636188   -3.140847   -0.480623 O.3        1 UNL1     -0.3829
     31 H         0.479349   -2.004124   1.689508 H        1 UNL1     0.0937
     32 H         0.0   0.0   0.0 H        1 UNL1     0.0671
     33 H         -1.908423   -0.978186   -1.521933 H        1 UNL1     0.0649
     34 H         -3.945758   -1.600599   -0.127636 H        1 UNL1     0.0683
     35 H         -3.408127   -2.88747   1.889582 H        1 UNL1     0.1085
     36 H         -5.055694   -2.907348   3.128117 H        1 UNL1     0.0691
     37 H         -2.843199   0.539465   4.489933 H        1 UNL1     0.0691
     38 H         -3.617319   -1.441896   8.877138 H        1 UNL1     0.0385
     39 H         -5.174265   -0.995705   9.601963 H        1 UNL1     0.0385
     40 H         -3.811984   0.989441   8.84517 H        1 UNL1     0.0789
     41 H         -4.762964   3.081134   7.489395 H        1 UNL1     0.0623
     42 H         -6.844669   4.392715   7.397524 H        1 UNL1     0.0654
     43 H         -9.11361   0.88285   8.388551 H        1 UNL1     0.0654
     44 H         -7.079788   -0.445935   8.450629 H        1 UNL1     0.0623
     45 H         -9.165077   4.152333   8.590712 H        1 UNL1     0.2921
     46 H         -5.869981   -3.918736   6.198663 H        1 UNL1     0.2922
     47 H         0.481359   0.177607   2.280334 H        1 UNL1     0.2126
     48 H         1.113801   -1.807557   -0.532991 H        1 UNL1     0.2101
     49 H         -2.091547   1.082974   -0.98767 H        1 UNL1     0.2100
     50 H         -2.877978   -3.080798   -1.428064 H        1 UNL1     0.2102
@<TRIPOS>BOND
     1     1     2    1
     2     1     6    1
     3     2     3    1
     4     3     4    1
     5     3    29    1
     6     3    33    1
     7     4     5    1
     8     5     6    1
     9     5     7    1
    10     5    35    1
    11     7     8    1
    12     8     9   ar
    13     8    13   ar
    14     9    10   ar
    15     9    36    1
    16    10    11   ar
    17    10    26    1
    18    11    12   ar
    19    11    14    1
    20    12    13   ar
    21    12    17    1
    22    13    37    1
    23    14    15    1
    24    14    25    2
    25    15    16    1
    26    15    38    1
    27    15    39    1
    28    16    17    1
    29    16    18    1
    30    16    40    1
    31    18    19   ar
    32    18    23   ar
    33    19    20   ar
    34    19    41    1
    35    20    21   ar
    36    20    42    1
    37    21    22   ar
    38    21    24    1
    39    22    23   ar
    40    22    43    1
    41    23    44    1
    42    24    45    1
    43    26    46    1
    44    27    47    1
    45    28    48    1
    46    29    49    1
    47    30    50    1
    48     1    31    1
    49     1    27    1
    50     2    32    1
    51     2    28    1
    52     4    34    1
    53     4    30    1
