@<TRIPOS>MOLECULE
*****
 50 53 0 0 0
SMALL
GASTEIGER

@<TRIPOS>ATOM
     1 C         -1.014249   -0.153059   1.928387 C.3        1 UNL1     0.1889
     2 C         0.242012   -0.297412   1.027881 C.3        1 UNL1     0.1342
     3 C         0.860157   -1.703843   1.010228 C.3        1 UNL1     0.1174
     4 C         0.748436   -2.418215   2.359416 C.3        1 UNL1     0.1456
     5 C         -0.660544   -2.308827   2.970296 C.3        1 UNL1     0.2326
     6 O         -1.023722   -0.93738   3.112087 O.3        1 UNL1     -0.3076
     7 O         -1.649889   -3.086942   2.272404 O.3        1 UNL1     -0.4605
     8 C         -2.349518   -4.003759   3.036273 C.ar        1 UNL1     0.1310
     9 C         -1.878929   -5.263196   3.423139 C.ar        1 UNL1     0.0226
     10 C         -2.658586   -6.115515   4.21408 C.ar        1 UNL1     0.1343
     11 C         -3.919483   -5.718975   4.657628 C.ar        1 UNL1     0.1007
     12 C         -4.416904   -4.480391   4.243783 C.ar        1 UNL1     0.1389
     13 C         -3.633838   -3.624664   3.446305 C.ar        1 UNL1     0.0229
     14 C         -4.750802   -6.544651   5.563897 C.2        1 UNL1     0.1740
     15 C         -5.972567   -5.871912   6.117306 C.3        1 UNL1     0.0520
     16 C         -6.607462   -5.040423   5.011192 C.3        1 UNL1     0.1322
     17 O         -5.686447   -4.035924   4.531835 O.3        1 UNL1     -0.4828
     18 C         -7.262721   -5.877473   3.909962 C.ar        1 UNL1     -0.0067
     19 C         -8.514286   -6.480696   4.15063 C.ar        1 UNL1     -0.0516
     20 C         -9.119075   -7.291207   3.182505 C.ar        1 UNL1     -0.0198
     21 C         -8.480502   -7.511729   1.975268 C.ar        1 UNL1     0.1169
     22 C         -7.263075   -6.904534   1.695939 C.ar        1 UNL1     -0.0198
     23 C         -6.666759   -6.07911   2.65674 C.ar        1 UNL1     -0.0516
     24 O         -9.082169   -8.33734   1.071518 O.3        1 UNL1     -0.5068
     25 O         -4.441563   -7.678933   5.919229 O.2        1 UNL1     -0.2917
     26 O         -2.141802   -7.331111   4.555907 O.3        1 UNL1     -0.5058
     27 O         -2.236189   -0.26485   1.216242 O.3        1 UNL1     -0.3648
     28 O         1.252997   0.60888   1.506682 O.3        1 UNL1     -0.3841
     29 O         0.332547   -2.47607   -0.070247 O.3        1 UNL1     -0.3863
     30 O         1.699721   -1.84207   3.280721 O.3        1 UNL1     -0.3829
     31 H         -1.01382   0.876284   2.303263 H        1 UNL1     0.0937
     32 H         0.0   0.0   -0.0 H        1 UNL1     0.0671
     33 H         1.932541   -1.596149   0.795488 H        1 UNL1     0.0649
     34 H         1.012249   -3.475514   2.245744 H        1 UNL1     0.0683
     35 H         -0.541886   -2.713712   3.983147 H        1 UNL1     0.1085
     36 H         -0.885204   -5.606877   3.157592 H        1 UNL1     0.0691
     37 H         -4.044526   -2.666054   3.136635 H        1 UNL1     0.0691
     38 H         -5.65288   -5.239787   6.952617 H        1 UNL1     0.0385
     39 H         -6.656341   -6.633721   6.507022 H        1 UNL1     0.0385
     40 H         -7.426312   -4.467164   5.46658 H        1 UNL1     0.0789
     41 H         -9.031611   -6.330527   5.09375 H        1 UNL1     0.0623
     42 H         -10.078783   -7.760379   3.384618 H        1 UNL1     0.0654
     43 H         -6.76146   -7.058335   0.747974 H        1 UNL1     0.0654
     44 H         -5.720458   -5.612407   2.400717 H        1 UNL1     0.0623
     45 H         -9.585995   -7.791973   0.445857 H        1 UNL1     0.2921
     46 H         -2.231214   -7.46311   5.512982 H        1 UNL1     0.2922
     47 H         -2.36937   0.512308   0.655752 H        1 UNL1     0.2126
     48 H         2.057656   0.432731   0.982059 H        1 UNL1     0.2101
     49 H         0.166284   -1.902676   -0.835342 H        1 UNL1     0.2100
     50 H         2.517546   -1.638193   2.781414 H        1 UNL1     0.2102
@<TRIPOS>BOND
     1     1     2    1
     2     1     6    1
     3     2     3    1
     4     3     4    1
     5     3    29    1
     6     3    33    1
     7     4     5    1
     8     5     6    1
     9     5     7    1
    10     5    35    1
    11     7     8    1
    12     8     9   ar
    13     8    13   ar
    14     9    10   ar
    15     9    36    1
    16    10    11   ar
    17    10    26    1
    18    11    12   ar
    19    11    14    1
    20    12    13   ar
    21    12    17    1
    22    13    37    1
    23    14    15    1
    24    14    25    2
    25    15    16    1
    26    15    38    1
    27    15    39    1
    28    16    17    1
    29    16    18    1
    30    16    40    1
    31    18    19   ar
    32    18    23   ar
    33    19    20   ar
    34    19    41    1
    35    20    21   ar
    36    20    42    1
    37    21    22   ar
    38    21    24    1
    39    22    23   ar
    40    22    43    1
    41    23    44    1
    42    24    45    1
    43    26    46    1
    44    27    47    1
    45    28    48    1
    46    29    49    1
    47    30    50    1
    48     1    31    1
    49     1    27    1
    50     2    32    1
    51     2    28    1
    52     4    34    1
    53     4    30    1
