@<TRIPOS>MOLECULE
*****
 50 53 0 0 0
SMALL
GASTEIGER

@<TRIPOS>ATOM
     1 C         -0.330874   -1.329112   1.701407 C.3        1 UNL1     0.1889
     2 C         -0.462322   -0.97549   0.195548 C.3        1 UNL1     0.1342
     3 C         -1.903502   -0.962713   -0.336714 C.3        1 UNL1     0.1174
     4 C         -2.78937   -2.022285   0.323335 C.3        1 UNL1     0.1456
     5 C         -2.636762   -2.048327   1.85513 C.3        1 UNL1     0.2326
     6 O         -1.271638   -2.266556   2.203959 O.3        1 UNL1     -0.3076
     7 O         -3.211271   -0.901582   2.507998 O.3        1 UNL1     -0.4605
     8 C         -3.719974   -1.117581   3.776104 C.ar        1 UNL1     0.1310
     9 C         -4.535902   -2.190803   4.149946 C.ar        1 UNL1     0.0226
     10 C         -4.987821   -2.331746   5.467446 C.ar        1 UNL1     0.1343
     11 C         -4.614847   -1.414925   6.449368 C.ar        1 UNL1     0.1007
     12 C         -3.834113   -0.31661   6.079311 C.ar        1 UNL1     0.1389
     13 C         -3.382019   -0.173682   4.753938 C.ar        1 UNL1     0.0229
     14 C         -4.994379   -1.561348   7.873682 C.2        1 UNL1     0.1740
     15 C         -4.324813   -0.613389   8.824788 C.3        1 UNL1     0.0520
     16 C         -4.256202   0.758851   8.168886 C.3        1 UNL1     0.1322
     17 O         -3.498578   0.702566   6.940103 O.3        1 UNL1     -0.4828
     18 C         -5.615634   1.451146   8.044807 C.ar        1 UNL1     -0.0067
     19 C         -5.995767   2.014391   6.809304 C.ar        1 UNL1     -0.0516
     20 C         -7.21123   2.695817   6.674131 C.ar        1 UNL1     -0.0198
     21 C         -8.050087   2.826912   7.766358 C.ar        1 UNL1     0.1169
     22 C         -7.718749   2.254279   8.987483 C.ar        1 UNL1     -0.0198
     23 C         -6.511831   1.556903   9.118139 C.ar        1 UNL1     -0.0516
     24 O         -9.208   3.529828   7.606525 O.3        1 UNL1     -0.5068
     25 O         -5.742733   -2.443292   8.286751 O.2        1 UNL1     -0.2917
     26 O         -5.781765   -3.400272   5.766593 O.3        1 UNL1     -0.5058
     27 O         -0.225015   -0.191276   2.542187 O.3        1 UNL1     -0.3648
     28 O         0.267706   -1.953575   -0.568073 O.3        1 UNL1     -0.3841
     29 O         -2.460884   0.350873   -0.259584 O.3        1 UNL1     -0.3863
     30 O         -2.44217   -3.322843   -0.19982 O.3        1 UNL1     -0.3829
     31 H         0.629865   -1.842038   1.819585 H        1 UNL1     0.0937
     32 H         0.0   0.0   0.0 H        1 UNL1     0.0671
     33 H         -1.867189   -1.201767   -1.408747 H        1 UNL1     0.0649
     34 H         -3.839658   -1.843823   0.067508 H        1 UNL1     0.0683
     35 H         -3.191285   -2.944329   2.161009 H        1 UNL1     0.1085
     36 H         -4.814815   -2.967263   3.446072 H        1 UNL1     0.0691
     37 H         -2.77629   0.690926   4.491187 H        1 UNL1     0.0691
     38 H         -3.322257   -1.003485   9.030296 H        1 UNL1     0.0385
     39 H         -4.884229   -0.594767   9.766322 H        1 UNL1     0.0385
     40 H         -3.660828   1.403848   8.829211 H        1 UNL1     0.0789
     41 H         -5.350677   1.933067   5.939307 H        1 UNL1     0.0623
     42 H         -7.487648   3.136023   5.719236 H        1 UNL1     0.0654
     43 H         -8.375252   2.337984   9.845333 H        1 UNL1     0.0654
     44 H         -6.289836   1.113207   10.083902 H        1 UNL1     0.0623
     45 H         -8.982291   4.437503   7.34595 H        1 UNL1     0.2921
     46 H         -5.377172   -3.913145   6.484004 H        1 UNL1     0.2922
     47 H         0.517784   0.362587   2.264078 H        1 UNL1     0.2126
     48 H         1.200809   -1.88788   -0.287474 H        1 UNL1     0.2101
     49 H         -2.022434   0.933532   -0.899946 H        1 UNL1     0.2100
     50 H         -2.676046   -3.337455   -1.151031 H        1 UNL1     0.2102
@<TRIPOS>BOND
     1     1     2    1
     2     1     6    1
     3     2     3    1
     4     3     4    1
     5     3    29    1
     6     3    33    1
     7     4     5    1
     8     5     6    1
     9     5     7    1
    10     5    35    1
    11     7     8    1
    12     8     9   ar
    13     8    13   ar
    14     9    10   ar
    15     9    36    1
    16    10    11   ar
    17    10    26    1
    18    11    12   ar
    19    11    14    1
    20    12    13   ar
    21    12    17    1
    22    13    37    1
    23    14    15    1
    24    14    25    2
    25    15    16    1
    26    15    38    1
    27    15    39    1
    28    16    17    1
    29    16    18    1
    30    16    40    1
    31    18    19   ar
    32    18    23   ar
    33    19    20   ar
    34    19    41    1
    35    20    21   ar
    36    20    42    1
    37    21    22   ar
    38    21    24    1
    39    22    23   ar
    40    22    43    1
    41    23    44    1
    42    24    45    1
    43    26    46    1
    44    27    47    1
    45    28    48    1
    46    29    49    1
    47    30    50    1
    48     1    31    1
    49     1    27    1
    50     2    32    1
    51     2    28    1
    52     4    34    1
    53     4    30    1
