@<TRIPOS>MOLECULE
*****
 50 53 0 0 0
SMALL
GASTEIGER

@<TRIPOS>ATOM
     1 C         -0.391026   -1.380828   1.646577 C.3        1 UNL1     0.1889
     2 C         -0.492422   -0.968265   0.153442 C.3        1 UNL1     0.1342
     3 C         -1.925484   -0.894215   -0.395478 C.3        1 UNL1     0.1174
     4 C         -2.849782   -1.951355   0.213821 C.3        1 UNL1     0.1456
     5 C         -2.718265   -2.038265   1.745328 C.3        1 UNL1     0.2326
     6 O         -1.364636   -2.30858   2.10238 O.3        1 UNL1     -0.3076
     7 O         -3.268525   -0.900248   2.433406 O.3        1 UNL1     -0.4605
     8 C         -3.810524   -1.150191   3.681322 C.ar        1 UNL1     0.1310
     9 C         -4.894883   -1.995726   3.939267 C.ar        1 UNL1     0.0226
     10 C         -5.360894   -2.197602   5.243867 C.ar        1 UNL1     0.1343
     11 C         -4.738115   -1.576758   6.325782 C.ar        1 UNL1     0.1007
     12 C         -3.680382   -0.698142   6.076747 C.ar        1 UNL1     0.1389
     13 C         -3.213683   -0.493269   4.76463 C.ar        1 UNL1     0.0229
     14 C         -5.135663   -1.81981   7.731852 C.2        1 UNL1     0.1740
     15 C         -4.21979   -1.247714   8.773693 C.3        1 UNL1     0.0520
     16 C         -3.769034   0.131872   8.31378 C.3        1 UNL1     0.1322
     17 O         -3.065195   0.048144   7.054943 O.3        1 UNL1     -0.4828
     18 C         -4.877439   1.186722   8.351894 C.ar        1 UNL1     -0.0067
     19 C         -5.267945   1.736527   9.590213 C.ar        1 UNL1     -0.0516
     20 C         -6.310233   2.668127   9.665829 C.ar        1 UNL1     -0.0198
     21 C         -6.973289   3.051665   8.513838 C.ar        1 UNL1     0.1169
     22 C         -6.589567   2.553142   7.275666 C.ar        1 UNL1     -0.0198
     23 C         -5.535129   1.635472   7.197571 C.ar        1 UNL1     -0.0516
     24 O         -8.008209   3.932341   8.6311 O.3        1 UNL1     -0.5068
     25 O         -6.100831   -2.508522   8.052183 O.2        1 UNL1     -0.2917
     26 O         -6.423254   -3.033804   5.427559 O.3        1 UNL1     -0.5058
     27 O         -0.263992   -0.278307   2.530373 O.3        1 UNL1     -0.3648
     28 O         0.219542   -1.938219   -0.637129 O.3        1 UNL1     -0.3841
     29 O         -2.44626   0.431196   -0.276274 O.3        1 UNL1     -0.3863
     30 O         -2.532811   -3.241229   -0.353138 O.3        1 UNL1     -0.3829
     31 H         0.553091   -1.925321   1.757258 H        1 UNL1     0.0937
     32 H         0.0   0.0   0.0 H        1 UNL1     0.0671
     33 H         -1.881798   -1.094524   -1.475148 H        1 UNL1     0.0649
     34 H         -3.891093   -1.733295   -0.047949 H        1 UNL1     0.0683
     35 H         -3.302043   -2.928534   2.010855 H        1 UNL1     0.1085
     36 H         -5.386162   -2.550688   3.147571 H        1 UNL1     0.0691
     37 H         -2.389375   0.196654   4.597253 H        1 UNL1     0.0691
     38 H         -3.367617   -1.928173   8.875193 H        1 UNL1     0.0385
     39 H         -4.745797   -1.212703   9.733833 H        1 UNL1     0.0385
     40 H         -3.011723   0.480138   9.029119 H        1 UNL1     0.0789
     41 H         -4.769304   1.444857   10.509961 H        1 UNL1     0.0623
     42 H         -6.609943   3.075893   10.628073 H        1 UNL1     0.0654
     43 H         -7.092075   2.858102   6.365503 H        1 UNL1     0.0654
     44 H         -5.254959   1.274563   6.212637 H        1 UNL1     0.0623
     45 H         -7.67034   4.826835   8.462452 H        1 UNL1     0.2921
     46 H         -6.590015   -3.141169   6.377336 H        1 UNL1     0.2922
     47 H         0.6076   0.130028   2.433166 H        1 UNL1     0.2126
     48 H         0.063486   -1.705409   -1.572639 H        1 UNL1     0.2101
     49 H         -3.002236   0.497267   0.516392 H        1 UNL1     0.2100
     50 H         -2.321878   -3.110421   -1.300824 H        1 UNL1     0.2102
@<TRIPOS>BOND
     1     1     2    1
     2     1     6    1
     3     2     3    1
     4     3     4    1
     5     3    29    1
     6     3    33    1
     7     4     5    1
     8     5     6    1
     9     5     7    1
    10     5    35    1
    11     7     8    1
    12     8     9   ar
    13     8    13   ar
    14     9    10   ar
    15     9    36    1
    16    10    11   ar
    17    10    26    1
    18    11    12   ar
    19    11    14    1
    20    12    13   ar
    21    12    17    1
    22    13    37    1
    23    14    15    1
    24    14    25    2
    25    15    16    1
    26    15    38    1
    27    15    39    1
    28    16    17    1
    29    16    18    1
    30    16    40    1
    31    18    19   ar
    32    18    23   ar
    33    19    20   ar
    34    19    41    1
    35    20    21   ar
    36    20    42    1
    37    21    22   ar
    38    21    24    1
    39    22    23   ar
    40    22    43    1
    41    23    44    1
    42    24    45    1
    43    26    46    1
    44    27    47    1
    45    28    48    1
    46    29    49    1
    47    30    50    1
    48     1    31    1
    49     1    27    1
    50     2    32    1
    51     2    28    1
    52     4    34    1
    53     4    30    1
