@<TRIPOS>MOLECULE
*****
 50 53 0 0 0
SMALL
GASTEIGER

@<TRIPOS>ATOM
     1 C         -0.39165   -1.380207   1.64695 C.3        1 UNL1     0.1889
     2 C         -0.492542   -0.968174   0.153635 C.3        1 UNL1     0.1342
     3 C         -1.925425   -0.894215   -0.395767 C.3        1 UNL1     0.1174
     4 C         -2.849995   -1.951067   0.213619 C.3        1 UNL1     0.1456
     5 C         -2.718969   -2.037436   1.745199 C.3        1 UNL1     0.2326
     6 O         -1.365473   -2.307722   2.102777 O.3        1 UNL1     -0.3076
     7 O         -3.269363   -0.899131   2.432693 O.3        1 UNL1     -0.4605
     8 C         -3.811776   -1.148584   3.680527 C.ar        1 UNL1     0.1310
     9 C         -4.89628   -1.993946   3.938432 C.ar        1 UNL1     0.0226
     10 C         -5.36272   -2.195318   5.242957 C.ar        1 UNL1     0.1343
     11 C         -4.740238   -1.574131   6.324845 C.ar        1 UNL1     0.1007
     12 C         -3.682361   -0.695683   6.07583 C.ar        1 UNL1     0.1389
     13 C         -3.215231   -0.491317   4.763787 C.ar        1 UNL1     0.0229
     14 C         -5.13825   -1.816648   7.730877 C.2        1 UNL1     0.1740
     15 C         -4.222664   -1.244245   8.772802 C.3        1 UNL1     0.0520
     16 C         -3.771661   0.135142   8.312536 C.3        1 UNL1     0.1322
     17 O         -3.067428   0.050909   7.053953 O.3        1 UNL1     -0.4828
     18 C         -4.88   1.190088   8.349919 C.ar        1 UNL1     -0.0067
     19 C         -4.554343   2.54471   8.132753 C.ar        1 UNL1     -0.0516
     20 C         -5.535845   3.540259   8.206914 C.ar        1 UNL1     -0.0198
     21 C         -6.842295   3.195696   8.504055 C.ar        1 UNL1     0.1169
     22 C         -7.200197   1.866715   8.689938 C.ar        1 UNL1     -0.0198
     23 C         -6.22237   0.869024   8.597618 C.ar        1 UNL1     -0.0516
     24 O         -7.763591   4.196383   8.60525 O.3        1 UNL1     -0.5068
     25 O         -6.10357   -2.505173   8.05115 O.2        1 UNL1     -0.2917
     26 O         -6.4252   -3.031375   5.426613 O.3        1 UNL1     -0.5058
     27 O         -0.264815   -0.277377   2.530389 O.3        1 UNL1     -0.3648
     28 O         0.2196   -1.938465   -0.636362 O.3        1 UNL1     -0.3841
     29 O         -2.44614   0.431278   -0.277205 O.3        1 UNL1     -0.3863
     30 O         -2.53294   -3.241169   -0.352776 O.3        1 UNL1     -0.3829
     31 H         0.552391   -1.92473   1.758126 H        1 UNL1     0.0937
     32 H         0.0   0.0   0.0 H        1 UNL1     0.0671
     33 H         -1.881411   -1.094915   -1.475351 H        1 UNL1     0.0649
     34 H         -3.891206   -1.733024   -0.048559 H        1 UNL1     0.0683
     35 H         -3.302897   -2.927566   2.010861 H        1 UNL1     0.1085
     36 H         -5.387349   -2.549157   3.14678 H        1 UNL1     0.0691
     37 H         -2.390818   0.198485   4.596424 H        1 UNL1     0.0691
     38 H         -3.370574   -1.924731   8.874818 H        1 UNL1     0.0385
     39 H         -4.748974   -1.20885   9.732763 H        1 UNL1     0.0385
     40 H         -3.014551   0.483609   9.02799 H        1 UNL1     0.0789
     41 H         -3.534383   2.841969   7.906987 H        1 UNL1     0.0623
     42 H         -5.269955   4.582585   8.049213 H        1 UNL1     0.0654
     43 H         -8.223164   1.584258   8.908266 H        1 UNL1     0.0654
     44 H         -6.5394   -0.159859   8.73811 H        1 UNL1     0.0623
     45 H         -7.31684   4.992214   8.936585 H        1 UNL1     0.2921
     46 H         -6.249011   -3.61793   6.179157 H        1 UNL1     0.2922
     47 H         0.618648   -0.263816   2.924304 H        1 UNL1     0.2126
     48 H         -0.329554   -2.114883   -1.424422 H        1 UNL1     0.2101
     49 H         -3.002362   0.497675   0.515261 H        1 UNL1     0.2100
     50 H         -3.272597   -3.850164   -0.148464 H        1 UNL1     0.2102
@<TRIPOS>BOND
     1     1     2    1
     2     1     6    1
     3     2     3    1
     4     3     4    1
     5     3    29    1
     6     3    33    1
     7     4     5    1
     8     5     6    1
     9     5     7    1
    10     5    35    1
    11     7     8    1
    12     8     9   ar
    13     8    13   ar
    14     9    10   ar
    15     9    36    1
    16    10    11   ar
    17    10    26    1
    18    11    12   ar
    19    11    14    1
    20    12    13   ar
    21    12    17    1
    22    13    37    1
    23    14    15    1
    24    14    25    2
    25    15    16    1
    26    15    38    1
    27    15    39    1
    28    16    17    1
    29    16    18    1
    30    16    40    1
    31    18    19   ar
    32    18    23   ar
    33    19    20   ar
    34    19    41    1
    35    20    21   ar
    36    20    42    1
    37    21    22   ar
    38    21    24    1
    39    22    23   ar
    40    22    43    1
    41    23    44    1
    42    24    45    1
    43    26    46    1
    44    27    47    1
    45    28    48    1
    46    29    49    1
    47    30    50    1
    48     1    31    1
    49     1    27    1
    50     2    32    1
    51     2    28    1
    52     4    34    1
    53     4    30    1
