@<TRIPOS>MOLECULE
*****
 50 53 0 0 0
SMALL
GASTEIGER

@<TRIPOS>ATOM
     1 C         -0.249007   1.84914   -1.135553 C.3        1 UNL1     0.1889
     2 C         -0.387206   1.013091   0.165164 C.3        1 UNL1     0.1342
     3 C         -1.817588   0.91891   0.717976 C.3        1 UNL1     0.1174
     4 C         -2.626748   2.198441   0.491749 C.3        1 UNL1     0.1456
     5 C         -2.493437   2.734766   -0.945244 C.3        1 UNL1     0.2326
     6 O         -1.120299   2.964243   -1.252983 O.3        1 UNL1     -0.3076
     7 O         -3.164736   1.92194   -1.925035 O.3        1 UNL1     -0.4605
     8 C         -4.5296   1.772672   -1.756534 C.ar        1 UNL1     0.1310
     9 C         -5.183309   1.626921   -0.528233 C.ar        1 UNL1     0.0226
     10 C         -6.57575   1.498957   -0.460147 C.ar        1 UNL1     0.1343
     11 C         -7.351151   1.537582   -1.618207 C.ar        1 UNL1     0.1007
     12 C         -6.706408   1.641484   -2.85364 C.ar        1 UNL1     0.1389
     13 C         -5.306094   1.767479   -2.922017 C.ar        1 UNL1     0.0229
     14 C         -8.831553   1.491135   -1.598048 C.2        1 UNL1     0.1740
     15 C         -9.507741   1.768041   -2.908636 C.3        1 UNL1     0.0520
     16 C         -8.716866   1.081094   -4.013434 C.3        1 UNL1     0.1322
     17 O         -7.36231   1.581053   -4.061285 O.3        1 UNL1     -0.4828
     18 C         -8.829381   -0.445238   -3.99405 C.ar        1 UNL1     -0.0067
     19 C         -8.962325   -1.145363   -5.210752 C.ar        1 UNL1     -0.0516
     20 C         -9.115058   -2.536912   -5.225785 C.ar        1 UNL1     -0.0198
     21 C         -9.143742   -3.237453   -4.033205 C.ar        1 UNL1     0.1169
     22 C         -8.981707   -2.579896   -2.820686 C.ar        1 UNL1     -0.0198
     23 C         -8.810456   -1.190463   -2.806331 C.ar        1 UNL1     -0.0516
     24 O         -9.332123   -4.587341   -4.085325 O.3        1 UNL1     -0.5068
     25 O         -9.488745   1.319653   -0.574731 O.2        1 UNL1     -0.2917
     26 O         -7.151663   1.358858   0.768788 O.3        1 UNL1     -0.5058
     27 O         -0.243947   1.061861   -2.315788 O.3        1 UNL1     -0.3648
     28 O         0.427433   1.619306   1.185739 O.3        1 UNL1     -0.3841
     29 O         -2.477029   -0.247872   0.222104 O.3        1 UNL1     -0.3863
     30 O         -2.171773   3.215377   1.410732 O.3        1 UNL1     -0.3829
     31 H         0.747219   2.304104   -1.110628 H        1 UNL1     0.0937
     32 H         0.0   -0.0   0.0 H        1 UNL1     0.0671
     33 H         -1.748094   0.7749   1.805244 H        1 UNL1     0.0649
     34 H         -3.684198   2.016268   0.713135 H        1 UNL1     0.0683
     35 H         -2.980273   3.717321   -0.907099 H        1 UNL1     0.1085
     36 H         -4.642194   1.645509   0.411431 H        1 UNL1     0.0691
     37 H         -4.828214   1.845856   -3.896173 H        1 UNL1     0.0691
     38 H         -9.523022   2.853936   -3.050495 H        1 UNL1     0.0385
     39 H         -10.543434   1.414855   -2.859851 H        1 UNL1     0.0385
     40 H         -9.158544   1.392911   -4.969577 H        1 UNL1     0.0789
     41 H         -8.952129   -0.617455   -6.159888 H        1 UNL1     0.0623
     42 H         -9.228569   -3.064016   -6.169865 H        1 UNL1     0.0654
     43 H         -8.987546   -3.120487   -1.88173 H        1 UNL1     0.0654
     44 H         -8.676126   -0.710638   -1.841671 H        1 UNL1     0.0623
     45 H         -9.235358   -4.94538   -3.188017 H        1 UNL1     0.2921
     46 H         -7.961919   1.891104   0.808933 H        1 UNL1     0.2922
     47 H         -0.413104   0.134104   -2.10012 H        1 UNL1     0.2126
     48 H         -0.056016   2.408537   1.497386 H        1 UNL1     0.2101
     49 H         -3.124853   0.00219   -0.455824 H        1 UNL1     0.2100
     50 H         -2.32669   2.889739   2.321596 H        1 UNL1     0.2102
@<TRIPOS>BOND
     1     1     2    1
     2     1     6    1
     3     2     3    1
     4     3     4    1
     5     3    29    1
     6     3    33    1
     7     4     5    1
     8     5     6    1
     9     5     7    1
    10     5    35    1
    11     7     8    1
    12     8     9   ar
    13     8    13   ar
    14     9    10   ar
    15     9    36    1
    16    10    11   ar
    17    10    26    1
    18    11    12   ar
    19    11    14    1
    20    12    13   ar
    21    12    17    1
    22    13    37    1
    23    14    15    1
    24    14    25    2
    25    15    16    1
    26    15    38    1
    27    15    39    1
    28    16    17    1
    29    16    18    1
    30    16    40    1
    31    18    19   ar
    32    18    23   ar
    33    19    20   ar
    34    19    41    1
    35    20    21   ar
    36    20    42    1
    37    21    22   ar
    38    21    24    1
    39    22    23   ar
    40    22    43    1
    41    23    44    1
    42    24    45    1
    43    26    46    1
    44    27    47    1
    45    28    48    1
    46    29    49    1
    47    30    50    1
    48     1    31    1
    49     1    27    1
    50     2    32    1
    51     2    28    1
    52     4    34    1
    53     4    30    1
