@<TRIPOS>MOLECULE
*****
 50 53 0 0 0
SMALL
GASTEIGER

@<TRIPOS>ATOM
     1 C         0.266367   0.768467   2.027144 C.3        1 UNL1     0.1889
     2 C         -0.387169   0.818167   0.61989 C.3        1 UNL1     0.1342
     3 C         -0.19799   2.146583   -0.128434 C.3        1 UNL1     0.1174
     4 C         -0.200624   3.359434   0.80543 C.3        1 UNL1     0.1456
     5 C         0.68828   3.151675   2.045208 C.3        1 UNL1     0.2326
     6 O         0.268974   1.988056   2.754462 O.3        1 UNL1     -0.3076
     7 O         2.096498   3.156534   1.748188 O.3        1 UNL1     -0.4605
     8 C         2.440639   3.47871   0.447689 C.ar        1 UNL1     0.1310
     9 C         2.626998   2.561494   -0.59216 C.ar        1 UNL1     0.0226
     10 C         2.958759   2.988828   -1.88337 C.ar        1 UNL1     0.1343
     11 C         3.088972   4.346647   -2.171834 C.ar        1 UNL1     0.1007
     12 C         2.945611   5.269651   -1.132462 C.ar        1 UNL1     0.1389
     13 C         2.614629   4.839553   0.166344 C.ar        1 UNL1     0.0229
     14 C         3.35555   4.858117   -3.536198 C.2        1 UNL1     0.1740
     15 C         3.242447   6.344708   -3.705913 C.3        1 UNL1     0.0520
     16 C         3.852434   7.01696   -2.483641 C.3        1 UNL1     0.1322
     17 O         3.158011   6.620677   -1.280393 O.3        1 UNL1     -0.4828
     18 C         5.37596   6.89136   -2.40738 C.ar        1 UNL1     -0.0067
     19 C         6.073108   6.267665   -3.462465 C.ar        1 UNL1     -0.0516
     20 C         7.461012   6.094105   -3.402784 C.ar        1 UNL1     -0.0198
     21 C         8.160691   6.532269   -2.2927 C.ar        1 UNL1     0.1169
     22 C         7.506734   7.180083   -1.25274 C.ar        1 UNL1     -0.0198
     23 C         6.121348   7.370286   -1.320448 C.ar        1 UNL1     -0.0516
     24 O         9.506172   6.312016   -2.253063 O.3        1 UNL1     -0.5068
     25 O         3.5771   4.129766   -4.499996 O.2        1 UNL1     -0.2917
     26 O         3.127861   2.043474   -2.852543 O.3        1 UNL1     -0.5058
     27 O         1.543515   0.150726   2.035872 O.3        1 UNL1     -0.3648
     28 O         -1.803714   0.607403   0.767139 O.3        1 UNL1     -0.3841
     29 O         0.9582   2.096104   -0.966771 O.3        1 UNL1     -0.3863
     30 O         -1.552716   3.618302   1.241921 O.3        1 UNL1     -0.3829
     31 H         -0.357258   0.107084   2.638489 H        1 UNL1     0.0937
     32 H         0.0   0.0   -0.0 H        1 UNL1     0.0671
     33 H         -1.04918   2.270318   -0.812455 H        1 UNL1     0.0649
     34 H         0.137164   4.249597   0.263296 H        1 UNL1     0.0683
     35 H         0.458264   4.014222   2.68316 H        1 UNL1     0.1085
     36 H         2.485209   1.496395   -0.44526 H        1 UNL1     0.0691
     37 H         2.509662   5.578029   0.958258 H        1 UNL1     0.0691
     38 H         2.1786   6.587268   -3.800361 H        1 UNL1     0.0385
     39 H         3.744127   6.639218   -4.634008 H        1 UNL1     0.0385
     40 H         3.65374   8.093523   -2.573383 H        1 UNL1     0.0789
     41 H         5.545604   5.906785   -4.34062 H        1 UNL1     0.0623
     42 H         7.985584   5.600996   -4.217449 H        1 UNL1     0.0654
     43 H         8.047013   7.540616   -0.385546 H        1 UNL1     0.0654
     44 H         5.644495   7.889777   -0.494866 H        1 UNL1     0.0623
     45 H         9.66055   5.353517   -2.265912 H        1 UNL1     0.2921
     46 H         2.788882   2.381235   -3.696594 H        1 UNL1     0.2922
     47 H         1.791712   -0.092327   2.938747 H        1 UNL1     0.2126
     48 H         -1.92233   -0.327871   1.021944 H        1 UNL1     0.2101
     49 H         1.18555   1.172683   -1.16016 H        1 UNL1     0.2100
     50 H         -2.148853   3.016547   0.74976 H        1 UNL1     0.2102
@<TRIPOS>BOND
     1     1     2    1
     2     1     6    1
     3     2     3    1
     4     3     4    1
     5     3    29    1
     6     3    33    1
     7     4     5    1
     8     5     6    1
     9     5     7    1
    10     5    35    1
    11     7     8    1
    12     8     9   ar
    13     8    13   ar
    14     9    10   ar
    15     9    36    1
    16    10    11   ar
    17    10    26    1
    18    11    12   ar
    19    11    14    1
    20    12    13   ar
    21    12    17    1
    22    13    37    1
    23    14    15    1
    24    14    25    2
    25    15    16    1
    26    15    38    1
    27    15    39    1
    28    16    17    1
    29    16    18    1
    30    16    40    1
    31    18    19   ar
    32    18    23   ar
    33    19    20   ar
    34    19    41    1
    35    20    21   ar
    36    20    42    1
    37    21    22   ar
    38    21    24    1
    39    22    23   ar
    40    22    43    1
    41    23    44    1
    42    24    45    1
    43    26    46    1
    44    27    47    1
    45    28    48    1
    46    29    49    1
    47    30    50    1
    48     1    31    1
    49     1    27    1
    50     2    32    1
    51     2    28    1
    52     4    34    1
    53     4    30    1
