@<TRIPOS>MOLECULE
*****
 50 53 0 0 0
SMALL
GASTEIGER

@<TRIPOS>ATOM
     1 C         -0.893643   -0.700204   1.86599 C.3        1 UNL1     0.1889
     2 C         -0.327231   0.423945   0.957472 C.3        1 UNL1     0.1342
     3 C         0.83103   1.223655   1.573395 C.3        1 UNL1     0.1174
     4 C         0.688663   1.404533   3.086713 C.3        1 UNL1     0.1456
     5 C         0.31684   0.094668   3.8053 C.3        1 UNL1     0.2326
     6 O         -0.89063   -0.432731   3.260567 O.3        1 UNL1     -0.3076
     7 O         1.38893   -0.864919   3.839005 O.3        1 UNL1     -0.4605
     8 C         1.503234   -1.605585   5.001707 C.ar        1 UNL1     0.1310
     9 C         1.756198   -1.082277   6.274287 C.ar        1 UNL1     0.0226
     10 C         1.837393   -1.915434   7.396409 C.ar        1 UNL1     0.1343
     11 C         1.643757   -3.290936   7.276657 C.ar        1 UNL1     0.1007
     12 C         1.431249   -3.829902   6.004989 C.ar        1 UNL1     0.1389
     13 C         1.352278   -2.992253   4.876477 C.ar        1 UNL1     0.0229
     14 C         1.635413   -4.207337   8.440398 C.2        1 UNL1     0.1740
     15 C         1.192333   -5.612656   8.157015 C.3        1 UNL1     0.0520
     16 C         1.785186   -6.045001   6.823013 C.3        1 UNL1     0.1322
     17 O         1.335207   -5.179608   5.757329 O.3        1 UNL1     -0.4828
     18 C         3.299186   -6.265971   6.864249 C.ar        1 UNL1     -0.0067
     19 C         3.8505   -7.402517   6.237725 C.ar        1 UNL1     -0.0516
     20 C         5.22542   -7.659481   6.297116 C.ar        1 UNL1     -0.0198
     21 C         6.056746   -6.793418   6.984618 C.ar        1 UNL1     0.1169
     22 C         5.548167   -5.648116   7.58334 C.ar        1 UNL1     -0.0198
     23 C         4.175875   -5.381175   7.508413 C.ar        1 UNL1     -0.0516
     24 O         7.384886   -7.096318   7.053143 O.3        1 UNL1     -0.5068
     25 O         1.891573   -3.847275   9.586357 O.2        1 UNL1     -0.2917
     26 O         2.087789   -1.342313   8.609017 O.3        1 UNL1     -0.5058
     27 O         -0.360234   -1.982804   1.577547 O.3        1 UNL1     -0.3648
     28 O         -1.38649   1.355889   0.670846 O.3        1 UNL1     -0.3841
     29 O         2.090545   0.661724   1.199245 O.3        1 UNL1     -0.3863
     30 O         -0.336444   2.386586   3.352077 O.3        1 UNL1     -0.3829
     31 H         -1.958439   -0.790544   1.624894 H        1 UNL1     0.0937
     32 H         0.0   0.0   0.0 H        1 UNL1     0.0671
     33 H         0.817071   2.229291   1.130426 H        1 UNL1     0.0649
     34 H         1.622585   1.794657   3.506228 H        1 UNL1     0.0683
     35 H         0.092382   0.410601   4.831791 H        1 UNL1     0.1085
     36 H         1.860348   -0.015898   6.441945 H        1 UNL1     0.0691
     37 H         1.187072   -3.436723   3.897372 H        1 UNL1     0.0691
     38 H         0.097673   -5.614023   8.12173 H        1 UNL1     0.0385
     39 H         1.50882   -6.261763   8.98059 H        1 UNL1     0.0385
     40 H         1.354842   -7.02602   6.580267 H        1 UNL1     0.0789
     41 H         3.21788   -8.102454   5.699644 H        1 UNL1     0.0623
     42 H         5.636832   -8.545572   5.820047 H        1 UNL1     0.0654
     43 H         6.192353   -4.955277   8.111458 H        1 UNL1     0.0654
     44 H         3.814443   -4.471703   7.978595 H        1 UNL1     0.0623
     45 H         7.679886   -7.382835   6.173598 H        1 UNL1     0.2921
     46 H         1.49487   -1.723633   9.27569 H        1 UNL1     0.2922
     47 H         -0.195875   -2.469191   2.39747 H        1 UNL1     0.2126
     48 H         -1.652071   1.74868   1.524611 H        1 UNL1     0.2101
     49 H         1.964217   -0.243521   0.873105 H        1 UNL1     0.2100
     50 H         -0.339788   3.02684   2.610609 H        1 UNL1     0.2102
@<TRIPOS>BOND
     1     1     2    1
     2     1     6    1
     3     2     3    1
     4     3     4    1
     5     3    29    1
     6     3    33    1
     7     4     5    1
     8     5     6    1
     9     5     7    1
    10     5    35    1
    11     7     8    1
    12     8     9   ar
    13     8    13   ar
    14     9    10   ar
    15     9    36    1
    16    10    11   ar
    17    10    26    1
    18    11    12   ar
    19    11    14    1
    20    12    13   ar
    21    12    17    1
    22    13    37    1
    23    14    15    1
    24    14    25    2
    25    15    16    1
    26    15    38    1
    27    15    39    1
    28    16    17    1
    29    16    18    1
    30    16    40    1
    31    18    19   ar
    32    18    23   ar
    33    19    20   ar
    34    19    41    1
    35    20    21   ar
    36    20    42    1
    37    21    22   ar
    38    21    24    1
    39    22    23   ar
    40    22    43    1
    41    23    44    1
    42    24    45    1
    43    26    46    1
    44    27    47    1
    45    28    48    1
    46    29    49    1
    47    30    50    1
    48     1    31    1
    49     1    27    1
    50     2    32    1
    51     2    28    1
    52     4    34    1
    53     4    30    1
