@<TRIPOS>MOLECULE
*****
 50 53 0 0 0
SMALL
GASTEIGER

@<TRIPOS>ATOM
     1 C         0.740012   -2.023251   -0.360057 C.3        1 UNL1     0.1889
     2 C         -0.212549   -1.019826   0.344006 C.3        1 UNL1     0.1342
     3 C         -0.157483   -1.052559   1.879051 C.3        1 UNL1     0.1174
     4 C         0.0871   -2.457894   2.434324 C.3        1 UNL1     0.1456
     5 C         1.226304   -3.191393   1.703189 C.3        1 UNL1     0.2326
     6 O         0.943274   -3.259981   0.30746 O.3        1 UNL1     -0.3076
     7 O         2.530614   -2.655095   1.990385 O.3        1 UNL1     -0.4605
     8 C         2.846028   -2.51259   3.329689 C.ar        1 UNL1     0.1310
     9 C         2.63809   -1.358612   4.092838 C.ar        1 UNL1     0.0226
     10 C         2.976316   -1.318243   5.450732 C.ar        1 UNL1     0.1343
     11 C         3.509194   -2.439796   6.084768 C.ar        1 UNL1     0.1007
     12 C         3.759508   -3.584657   5.323572 C.ar        1 UNL1     0.1389
     13 C         3.421787   -3.624129   3.957623 C.ar        1 UNL1     0.0229
     14 C         3.806559   -2.479557   7.535336 C.2        1 UNL1     0.1740
     15 C         4.161426   -3.82844   8.088629 C.3        1 UNL1     0.0520
     16 C         5.05789   -4.540286   7.084843 C.3        1 UNL1     0.1322
     17 O         4.37989   -4.707507   5.82016 O.3        1 UNL1     -0.4828
     18 C         6.461456   -3.939274   6.977559 C.ar        1 UNL1     -0.0067
     19 C         7.365017   -4.455547   6.026111 C.ar        1 UNL1     -0.0516
     20 C         8.671438   -3.960867   5.933817 C.ar        1 UNL1     -0.0198
     21 C         9.087784   -2.957369   6.790249 C.ar        1 UNL1     0.1169
     22 C         8.210896   -2.4056   7.715158 C.ar        1 UNL1     -0.0198
     23 C         6.898821   -2.887368   7.795239 C.ar        1 UNL1     -0.0516
     24 O         10.378668   -2.527016   6.696353 O.3        1 UNL1     -0.5068
     25 O         3.698897   -1.504644   8.27455 O.2        1 UNL1     -0.2917
     26 O         2.749195   -0.161854   6.138313 O.3        1 UNL1     -0.5058
     27 O         1.96707   -1.443192   -0.773153 O.3        1 UNL1     -0.3648
     28 O         -1.564947   -1.326627   -0.042774 O.3        1 UNL1     -0.3841
     29 O         0.777562   -0.091645   2.373488 O.3        1 UNL1     -0.3863
     30 O         -1.123174   -3.235325   2.305766 O.3        1 UNL1     -0.3829
     31 H         0.250973   -2.314779   -1.295969 H        1 UNL1     0.0937
     32 H         0.0   0.0   0.0 H        1 UNL1     0.0671
     33 H         -1.137019   -0.727642   2.256753 H        1 UNL1     0.0649
     34 H         0.32029   -2.40225   3.503402 H        1 UNL1     0.0683
     35 H         1.172184   -4.216597   2.090366 H        1 UNL1     0.1085
     36 H         2.175826   -0.472371   3.672114 H        1 UNL1     0.0691
     37 H         3.627809   -4.52707   3.386881 H        1 UNL1     0.0691
     38 H         3.227392   -4.378901   8.243869 H        1 UNL1     0.0385
     39 H         4.648788   -3.700569   9.061206 H        1 UNL1     0.0385
     40 H         5.207576   -5.564075   7.453584 H        1 UNL1     0.0789
     41 H         7.065302   -5.249754   5.348574 H        1 UNL1     0.0623
     42 H         9.362435   -4.375426   5.203971 H        1 UNL1     0.0654
     43 H         8.521991   -1.609079   8.380504 H        1 UNL1     0.0654
     44 H         6.237553   -2.425899   8.522299 H        1 UNL1     0.0623
     45 H         10.911277   -3.010274   7.348661 H        1 UNL1     0.2921
     46 H         1.825095   -0.136844   6.432973 H        1 UNL1     0.2922
     47 H         1.823534   -0.535145   -1.074328 H        1 UNL1     0.2126
     48 H         -1.510569   -1.814364   -0.8871 H        1 UNL1     0.2101
     49 H         0.927621   0.596595   1.705954 H        1 UNL1     0.2100
     50 H         -1.030478   -4.032602   2.867433 H        1 UNL1     0.2102
@<TRIPOS>BOND
     1     1     2    1
     2     1     6    1
     3     2     3    1
     4     3     4    1
     5     3    29    1
     6     3    33    1
     7     4     5    1
     8     5     6    1
     9     5     7    1
    10     5    35    1
    11     7     8    1
    12     8     9   ar
    13     8    13   ar
    14     9    10   ar
    15     9    36    1
    16    10    11   ar
    17    10    26    1
    18    11    12   ar
    19    11    14    1
    20    12    13   ar
    21    12    17    1
    22    13    37    1
    23    14    15    1
    24    14    25    2
    25    15    16    1
    26    15    38    1
    27    15    39    1
    28    16    17    1
    29    16    18    1
    30    16    40    1
    31    18    19   ar
    32    18    23   ar
    33    19    20   ar
    34    19    41    1
    35    20    21   ar
    36    20    42    1
    37    21    22   ar
    38    21    24    1
    39    22    23   ar
    40    22    43    1
    41    23    44    1
    42    24    45    1
    43    26    46    1
    44    27    47    1
    45    28    48    1
    46    29    49    1
    47    30    50    1
    48     1    31    1
    49     1    27    1
    50     2    32    1
    51     2    28    1
    52     4    34    1
    53     4    30    1
