@<TRIPOS>MOLECULE
*****
 50 53 0 0 0
SMALL
GASTEIGER

@<TRIPOS>ATOM
     1 C         -0.326516   -1.366727   1.672199 C.3        1 UNL1     0.1889
     2 C         -0.462171   -0.979453   0.175016 C.3        1 UNL1     0.1342
     3 C         -1.90488   -0.954248   -0.35264 C.3        1 UNL1     0.1174
     4 C         -2.789287   -2.028   0.286107 C.3        1 UNL1     0.1456
     5 C         -2.632256   -2.088363   1.816487 C.3        1 UNL1     0.2326
     6 O         -1.266222   -2.314838   2.156381 O.3        1 UNL1     -0.3076
     7 O         -3.204383   -0.956305   2.496513 O.3        1 UNL1     -0.4605
     8 C         -3.716735   -1.202143   3.757697 C.ar        1 UNL1     0.1310
     9 C         -4.537152   -2.281549   4.102808 C.ar        1 UNL1     0.0226
     10 C         -4.99258   -2.453783   5.415372 C.ar        1 UNL1     0.1343
     11 C         -4.618768   -1.563053   6.420709 C.ar        1 UNL1     0.1007
     12 C         -3.83347   -0.458535   6.07993 C.ar        1 UNL1     0.1389
     13 C         -3.377841   -0.284119   4.759546 C.ar        1 UNL1     0.0229
     14 C         -5.002075   -1.743682   7.840076 C.2        1 UNL1     0.1740
     15 C         -4.331497   -0.822073   8.816044 C.3        1 UNL1     0.0520
     16 C         -4.256729   0.565869   8.194769 C.3        1 UNL1     0.1322
     17 O         -3.49647   0.537672   6.966649 O.3        1 UNL1     -0.4828
     18 C         -5.61352   1.265722   8.085001 C.ar        1 UNL1     -0.0067
     19 C         -5.981401   1.876304   6.868421 C.ar        1 UNL1     -0.0516
     20 C         -7.194153   2.56536   6.748428 C.ar        1 UNL1     -0.0198
     21 C         -8.04245   2.657055   7.837378 C.ar        1 UNL1     0.1169
     22 C         -7.723253   2.037758   9.038804 C.ar        1 UNL1     -0.0198
     23 C         -6.519039   1.332955   9.153603 C.ar        1 UNL1     -0.0516
     24 O         -9.197388   3.368378   7.694068 O.3        1 UNL1     -0.5068
     25 O         -5.754361   -2.633082   8.229329 O.2        1 UNL1     -0.2917
     26 O         -5.790825   -3.526706   5.685978 O.3        1 UNL1     -0.5058
     27 O         -0.217737   -0.248026   2.537914 O.3        1 UNL1     -0.3648
     28 O         0.265225   -1.940472   -0.612412 O.3        1 UNL1     -0.3841
     29 O         -2.461475   0.357486   -0.244522 O.3        1 UNL1     -0.3863
     30 O         -2.44416   -3.316653   -0.26702 O.3        1 UNL1     -0.3829
     31 H         0.634342   -1.882517   1.776081 H        1 UNL1     0.0937
     32 H         0.0   0.0   0.0 H        1 UNL1     0.0671
     33 H         -1.871774   -1.169269   -1.429854 H        1 UNL1     0.0649
     34 H         -3.840235   -1.843478   0.037388 H        1 UNL1     0.0683
     35 H         -3.186275   -2.990784   2.103852 H        1 UNL1     0.1085
     36 H         -4.817069   -3.039229   3.379146 H        1 UNL1     0.0691
     37 H         -2.768584   0.584689   4.519814 H        1 UNL1     0.0691
     38 H         -3.330744   -1.220627   9.013969 H        1 UNL1     0.0385
     39 H         -4.893015   -0.825038   9.756505 H        1 UNL1     0.0385
     40 H         -3.660698   1.192127   8.872315 H        1 UNL1     0.0789
     41 H         -5.328741   1.826403   6.001706 H        1 UNL1     0.0623
     42 H         -7.461093   3.042104   5.808498 H        1 UNL1     0.0654
     43 H         -8.387212   2.090526   9.893371 H        1 UNL1     0.0654
     44 H         -6.306625   0.852445   10.103779 H        1 UNL1     0.0623
     45 H         -8.967012   4.291495   7.500424 H        1 UNL1     0.2921
     46 H         -5.390402   -4.057869   6.392334 H        1 UNL1     0.2922
     47 H         -0.096838   0.562572   2.023935 H        1 UNL1     0.2126
     48 H         1.205415   -1.851682   -0.363633 H        1 UNL1     0.2101
     49 H         -2.0305   0.952166   -0.878881 H        1 UNL1     0.2100
     50 H         -2.686009   -3.31185   -1.216335 H        1 UNL1     0.2102
@<TRIPOS>BOND
     1     1     2    1
     2     1     6    1
     3     2     3    1
     4     3     4    1
     5     3    29    1
     6     3    33    1
     7     4     5    1
     8     5     6    1
     9     5     7    1
    10     5    35    1
    11     7     8    1
    12     8     9   ar
    13     8    13   ar
    14     9    10   ar
    15     9    36    1
    16    10    11   ar
    17    10    26    1
    18    11    12   ar
    19    11    14    1
    20    12    13   ar
    21    12    17    1
    22    13    37    1
    23    14    15    1
    24    14    25    2
    25    15    16    1
    26    15    38    1
    27    15    39    1
    28    16    17    1
    29    16    18    1
    30    16    40    1
    31    18    19   ar
    32    18    23   ar
    33    19    20   ar
    34    19    41    1
    35    20    21   ar
    36    20    42    1
    37    21    22   ar
    38    21    24    1
    39    22    23   ar
    40    22    43    1
    41    23    44    1
    42    24    45    1
    43    26    46    1
    44    27    47    1
    45    28    48    1
    46    29    49    1
    47    30    50    1
    48     1    31    1
    49     1    27    1
    50     2    32    1
    51     2    28    1
    52     4    34    1
    53     4    30    1
