@<TRIPOS>MOLECULE
*****
 50 53 0 0 0
SMALL
GASTEIGER

@<TRIPOS>ATOM
     1 C         -1.453261   -1.330544   0.942598 C.3        1 UNL1     0.1889
     2 C         -0.876917   -0.589998   -0.294075 C.3        1 UNL1     0.1342
     3 C         -1.877028   0.325104   -1.017146 C.3        1 UNL1     0.1174
     4 C         -3.305132   -0.225661   -0.999973 C.3        1 UNL1     0.1456
     5 C         -3.730341   -0.720004   0.394726 C.3        1 UNL1     0.2326
     6 O         -2.818053   -1.713261   0.857371 O.3        1 UNL1     -0.3076
     7 O         -3.936577   0.343939   1.341727 O.3        1 UNL1     -0.4605
     8 C         -4.907431   0.121372   2.301641 C.ar        1 UNL1     0.1310
     9 C         -6.184229   -0.396087   2.058074 C.ar        1 UNL1     0.0226
     10 C         -7.093262   -0.601568   3.102746 C.ar        1 UNL1     0.1343
     11 C         -6.738687   -0.316585   4.420661 C.ar        1 UNL1     0.1007
     12 C         -5.481243   0.23902   4.671502 C.ar        1 UNL1     0.1389
     13 C         -4.568356   0.448008   3.620601 C.ar        1 UNL1     0.0229
     14 C         -7.629037   -0.592689   5.571833 C.2        1 UNL1     0.1740
     15 C         -7.005481   -0.434643   6.927469 C.3        1 UNL1     0.0520
     16 C         -6.111353   0.797438   6.905832 C.3        1 UNL1     0.1322
     17 O         -5.068976   0.657235   5.915447 O.3        1 UNL1     -0.4828
     18 C         -6.882776   2.117376   6.83239 C.ar        1 UNL1     -0.0067
     19 C         -6.492323   3.096531   5.895899 C.ar        1 UNL1     -0.0516
     20 C         -7.146044   4.332999   5.834598 C.ar        1 UNL1     -0.0198
     21 C         -8.184522   4.60467   6.707288 C.ar        1 UNL1     0.1169
     22 C         -8.613777   3.648091   7.618076 C.ar        1 UNL1     -0.0198
     23 C         -7.972291   2.40465   7.667151 C.ar        1 UNL1     -0.0516
     24 O         -8.772507   5.83374   6.643561 O.3        1 UNL1     -0.5068
     25 O         -8.780555   -1.00296   5.452797 O.2        1 UNL1     -0.2917
     26 O         -8.322961   -1.108064   2.797973 O.3        1 UNL1     -0.5058
     27 O         -1.166259   -0.684717   2.172771 O.3        1 UNL1     -0.3648
     28 O         -0.42934   -1.572554   -1.246421 O.3        1 UNL1     -0.3841
     29 O         -1.793321   1.661756   -0.518662 O.3        1 UNL1     -0.3863
     30 O         -3.399903   -1.325585   -1.931034 O.3        1 UNL1     -0.3829
     31 H         -0.922914   -2.286726   1.00987 H        1 UNL1     0.0937
     32 H         0.0   0.0   0.0 H        1 UNL1     0.0671
     33 H         -1.573055   0.387305   -2.0714 H        1 UNL1     0.0649
     34 H         -4.006844   0.543827   -1.340396 H        1 UNL1     0.0683
     35 H         -4.687878   -1.224972   0.215815 H        1 UNL1     0.1085
     36 H         -6.500149   -0.689905   1.063094 H        1 UNL1     0.0691
     37 H         -3.596089   0.882889   3.842114 H        1 UNL1     0.0691
     38 H         -6.424922   -1.340401   7.1326 H        1 UNL1     0.0385
     39 H         -7.797544   -0.35826   7.680185 H        1 UNL1     0.0385
     40 H         -5.576722   0.826295   7.864924 H        1 UNL1     0.0789
     41 H         -5.674122   2.911077   5.206114 H        1 UNL1     0.0623
     42 H         -6.827882   5.084301   5.116037 H        1 UNL1     0.0654
     43 H         -9.435809   3.844787   8.295928 H        1 UNL1     0.0654
     44 H         -8.340714   1.677073   8.383909 H        1 UNL1     0.0623
     45 H         -8.105014   6.504664   6.860426 H        1 UNL1     0.2921
     46 H         -8.473832   -1.919864   3.307513 H        1 UNL1     0.2922
     47 H         -0.213332   -0.544542   2.262993 H        1 UNL1     0.2126
     48 H         0.301884   -2.061014   -0.821626 H        1 UNL1     0.2101
     49 H         -0.954189   2.064476   -0.793374 H        1 UNL1     0.2100
     50 H         -3.270094   -0.968353   -2.833944 H        1 UNL1     0.2102
@<TRIPOS>BOND
     1     1     2    1
     2     1     6    1
     3     2     3    1
     4     3     4    1
     5     3    29    1
     6     3    33    1
     7     4     5    1
     8     5     6    1
     9     5     7    1
    10     5    35    1
    11     7     8    1
    12     8     9   ar
    13     8    13   ar
    14     9    10   ar
    15     9    36    1
    16    10    11   ar
    17    10    26    1
    18    11    12   ar
    19    11    14    1
    20    12    13   ar
    21    12    17    1
    22    13    37    1
    23    14    15    1
    24    14    25    2
    25    15    16    1
    26    15    38    1
    27    15    39    1
    28    16    17    1
    29    16    18    1
    30    16    40    1
    31    18    19   ar
    32    18    23   ar
    33    19    20   ar
    34    19    41    1
    35    20    21   ar
    36    20    42    1
    37    21    22   ar
    38    21    24    1
    39    22    23   ar
    40    22    43    1
    41    23    44    1
    42    24    45    1
    43    26    46    1
    44    27    47    1
    45    28    48    1
    46    29    49    1
    47    30    50    1
    48     1    31    1
    49     1    27    1
    50     2    32    1
    51     2    28    1
    52     4    34    1
    53     4    30    1
