@<TRIPOS>MOLECULE
*****
 50 53 0 0 0
SMALL
GASTEIGER

@<TRIPOS>ATOM
     1 C         -0.142277   -1.964776   -0.943513 C.3        1 UNL1     0.1889
     2 C         -0.614351   -0.497218   -0.760861 C.3        1 UNL1     0.1342
     3 C         -2.096671   -0.34215   -0.387838 C.3        1 UNL1     0.1174
     4 C         -2.987487   -1.400351   -1.043408 C.3        1 UNL1     0.1456
     5 C         -2.406142   -2.820542   -0.919067 C.3        1 UNL1     0.2326
     6 O         -1.099089   -2.862182   -1.487176 O.3        1 UNL1     -0.3076
     7 O         -2.458228   -3.346056   0.419754 O.3        1 UNL1     -0.4605
     8 C         -2.692459   -2.424191   1.424159 C.ar        1 UNL1     0.1310
     9 C         -1.859135   -1.347614   1.746421 C.ar        1 UNL1     0.0226
     10 C         -2.192769   -0.456155   2.773014 C.ar        1 UNL1     0.1343
     11 C         -3.380784   -0.606008   3.487159 C.ar        1 UNL1     0.1007
     12 C         -4.200956   -1.700892   3.201971 C.ar        1 UNL1     0.1389
     13 C         -3.863965   -2.598624   2.171464 C.ar        1 UNL1     0.0229
     14 C         -3.823255   0.354101   4.524735 C.2        1 UNL1     0.1740
     15 C         -5.223102   0.164047   5.030559 C.3        1 UNL1     0.0520
     16 C         -5.482115   -1.328565   5.182149 C.3        1 UNL1     0.1322
     17 O         -5.337825   -2.00544   3.914044 O.3        1 UNL1     -0.4828
     18 C         -4.71162   -1.973508   6.336753 C.ar        1 UNL1     -0.0067
     19 C         -5.002769   -3.302646   6.70667 C.ar        1 UNL1     -0.0516
     20 C         -4.350324   -3.906627   7.788097 C.ar        1 UNL1     -0.0198
     21 C         -3.412173   -3.191247   8.510545 C.ar        1 UNL1     0.1169
     22 C         -3.079769   -1.891935   8.149805 C.ar        1 UNL1     -0.0198
     23 C         -3.718716   -1.293961   7.056997 C.ar        1 UNL1     -0.0516
     24 O         -2.824802   -3.799686   9.580684 O.3        1 UNL1     -0.5068
     25 O         -3.139723   1.300879   4.905366 O.2        1 UNL1     -0.2917
     26 O         -1.33652   0.572494   3.038164 O.3        1 UNL1     -0.5058
     27 O         0.486215   -2.504012   0.208445 O.3        1 UNL1     -0.3648
     28 O         -0.408736   0.205675   -2.000365 O.3        1 UNL1     -0.3841
     29 O         -2.259112   -0.283655   1.030726 O.3        1 UNL1     -0.3863
     30 O         -3.145937   -1.084705   -2.443748 O.3        1 UNL1     -0.3829
     31 H         0.650298   -1.94664   -1.699538 H        1 UNL1     0.0937
     32 H         0.0   0.0   0.0 H        1 UNL1     0.0671
     33 H         -2.43597   0.634293   -0.760874 H        1 UNL1     0.0649
     34 H         -3.986785   -1.378061   -0.594734 H        1 UNL1     0.0683
     35 H         -3.053457   -3.428679   -1.563297 H        1 UNL1     0.1085
     36 H         -0.949766   -1.144412   1.191555 H        1 UNL1     0.0691
     37 H         -4.518784   -3.443652   1.969887 H        1 UNL1     0.0691
     38 H         -5.90355   0.61055   4.297652 H        1 UNL1     0.0385
     39 H         -5.338873   0.702623   5.977296 H        1 UNL1     0.0385
     40 H         -6.54351   -1.448556   5.4382 H        1 UNL1     0.0789
     41 H         -5.741782   -3.882315   6.161239 H        1 UNL1     0.0623
     42 H         -4.592184   -4.928164   8.070899 H        1 UNL1     0.0654
     43 H         -2.335706   -1.327787   8.699366 H        1 UNL1     0.0654
     44 H         -3.42677   -0.281104   6.796739 H        1 UNL1     0.0623
     45 H         -3.388676   -4.538784   9.860857 H        1 UNL1     0.2921
     46 H         -1.841937   1.392735   3.152923 H        1 UNL1     0.2922
     47 H         -0.172397   -2.906065   0.791921 H        1 UNL1     0.2126
     48 H         -1.200273   0.759803   -2.142296 H        1 UNL1     0.2101
     49 H         -2.65659   0.56507   1.282661 H        1 UNL1     0.2100
     50 H         -3.100599   -0.110882   -2.54032 H        1 UNL1     0.2102
@<TRIPOS>BOND
     1     1     2    1
     2     1     6    1
     3     2     3    1
     4     3     4    1
     5     3    29    1
     6     3    33    1
     7     4     5    1
     8     5     6    1
     9     5     7    1
    10     5    35    1
    11     7     8    1
    12     8     9   ar
    13     8    13   ar
    14     9    10   ar
    15     9    36    1
    16    10    11   ar
    17    10    26    1
    18    11    12   ar
    19    11    14    1
    20    12    13   ar
    21    12    17    1
    22    13    37    1
    23    14    15    1
    24    14    25    2
    25    15    16    1
    26    15    38    1
    27    15    39    1
    28    16    17    1
    29    16    18    1
    30    16    40    1
    31    18    19   ar
    32    18    23   ar
    33    19    20   ar
    34    19    41    1
    35    20    21   ar
    36    20    42    1
    37    21    22   ar
    38    21    24    1
    39    22    23   ar
    40    22    43    1
    41    23    44    1
    42    24    45    1
    43    26    46    1
    44    27    47    1
    45    28    48    1
    46    29    49    1
    47    30    50    1
    48     1    31    1
    49     1    27    1
    50     2    32    1
    51     2    28    1
    52     4    34    1
    53     4    30    1
