@<TRIPOS>MOLECULE
*****
 50 53 0 0 0
SMALL
GASTEIGER

@<TRIPOS>ATOM
     1 C         -0.370744   -1.397939   1.636802 C.3        1 UNL1     0.1889
     2 C         -0.487834   -0.971311   0.148777 C.3        1 UNL1     0.1342
     3 C         -1.926347   -0.896661   -0.385613 C.3        1 UNL1     0.1174
     4 C         -2.841361   -1.962659   0.222264 C.3        1 UNL1     0.1456
     5 C         -2.694818   -2.063924   1.751524 C.3        1 UNL1     0.2326
     6 O         -1.336957   -2.333235   2.092924 O.3        1 UNL1     -0.3076
     7 O         -3.242045   -0.934414   2.455847 O.3        1 UNL1     -0.4605
     8 C         -3.771196   -1.198171   3.706431 C.ar        1 UNL1     0.1310
     9 C         -4.620254   -2.26544   4.018421 C.ar        1 UNL1     0.0226
     10 C         -5.091187   -2.458253   5.322625 C.ar        1 UNL1     0.1343
     11 C         -4.704969   -1.601355   6.352383 C.ar        1 UNL1     0.1007
     12 C         -3.890453   -0.508243   6.045046 C.ar        1 UNL1     0.1389
     13 C         -3.419199   -0.313067   4.733079 C.ar        1 UNL1     0.0229
     14 C         -5.104943   -1.80688   7.763742 C.2        1 UNL1     0.1740
     15 C         -4.421057   -0.925589   8.767323 C.3        1 UNL1     0.0520
     16 C         -4.307583   0.474735   8.180662 C.3        1 UNL1     0.1322
     17 O         -3.537465   0.457823   6.958491 O.3        1 UNL1     -0.4828
     18 C         -5.646189   1.209638   8.076851 C.ar        1 UNL1     -0.0067
     19 C         -5.661389   2.574162   7.721805 C.ar        1 UNL1     -0.0516
     20 C         -6.864325   3.288003   7.66402 C.ar        1 UNL1     -0.0198
     21 C         -8.055323   2.652031   7.965501 C.ar        1 UNL1     0.1169
     22 C         -8.076154   1.300829   8.285905 C.ar        1 UNL1     -0.0198
     23 C         -6.875309   0.582193   8.325788 C.ar        1 UNL1     -0.0516
     24 O         -9.202736   3.388877   7.935464 O.3        1 UNL1     -0.5068
     25 O         -5.881725   -2.686968   8.125045 O.2        1 UNL1     -0.2917
     26 O         -5.917271   -3.51778   5.560475 O.3        1 UNL1     -0.5058
     27 O         -0.238713   -0.303593   2.529976 O.3        1 UNL1     -0.3648
     28 O         0.219565   -1.931246   -0.657955 O.3        1 UNL1     -0.3841
     29 O         -2.450169   0.425824   -0.248579 O.3        1 UNL1     -0.3863
     30 O         -2.525761   -3.245953   -0.360183 O.3        1 UNL1     -0.3829
     31 H         0.576125   -1.940377   1.73313 H        1 UNL1     0.0937
     32 H         0.0   0.0   0.0 H        1 UNL1     0.0671
     33 H         -1.892427   -1.08639   -1.467543 H        1 UNL1     0.0649
     34 H         -3.885834   -1.745496   -0.027369 H        1 UNL1     0.0683
     35 H         -3.273172   -2.958623   2.014008 H        1 UNL1     0.1085
     36 H         -4.911892   -2.998436   3.274254 H        1 UNL1     0.0691
     37 H         -2.787206   0.54629   4.519574 H        1 UNL1     0.0691
     38 H         -3.431923   -1.352888   8.963681 H        1 UNL1     0.0385
     39 H         -4.99072   -0.937681   9.702799 H        1 UNL1     0.0385
     40 H         -3.70268   1.069855   8.878118 H        1 UNL1     0.0789
     41 H         -4.738991   3.09846   7.489546 H        1 UNL1     0.0623
     42 H         -6.8617   4.342792   7.400534 H        1 UNL1     0.0654
     43 H         -9.004807   0.789262   8.509094 H        1 UNL1     0.0654
     44 H         -6.929871   -0.474441   8.569491 H        1 UNL1     0.0623
     45 H         -9.656238   3.216116   7.094509 H        1 UNL1     0.2921
     46 H         -5.704202   -3.906788   6.423427 H        1 UNL1     0.2922
     47 H         0.507712   0.253609   2.268757 H        1 UNL1     0.2126
     48 H         1.171731   -1.779325   -0.502933 H        1 UNL1     0.2101
     49 H         -2.998689   0.482414   0.549993 H        1 UNL1     0.2100
     50 H         -2.782845   -3.219604   -1.30513 H        1 UNL1     0.2102
@<TRIPOS>BOND
     1     1     2    1
     2     1     6    1
     3     2     3    1
     4     3     4    1
     5     3    29    1
     6     3    33    1
     7     4     5    1
     8     5     6    1
     9     5     7    1
    10     5    35    1
    11     7     8    1
    12     8     9   ar
    13     8    13   ar
    14     9    10   ar
    15     9    36    1
    16    10    11   ar
    17    10    26    1
    18    11    12   ar
    19    11    14    1
    20    12    13   ar
    21    12    17    1
    22    13    37    1
    23    14    15    1
    24    14    25    2
    25    15    16    1
    26    15    38    1
    27    15    39    1
    28    16    17    1
    29    16    18    1
    30    16    40    1
    31    18    19   ar
    32    18    23   ar
    33    19    20   ar
    34    19    41    1
    35    20    21   ar
    36    20    42    1
    37    21    22   ar
    38    21    24    1
    39    22    23   ar
    40    22    43    1
    41    23    44    1
    42    24    45    1
    43    26    46    1
    44    27    47    1
    45    28    48    1
    46    29    49    1
    47    30    50    1
    48     1    31    1
    49     1    27    1
    50     2    32    1
    51     2    28    1
    52     4    34    1
    53     4    30    1
