@<TRIPOS>MOLECULE
*****
 50 53 0 0 0
SMALL
GASTEIGER

@<TRIPOS>ATOM
     1 C         0.696807   -1.44126   1.485945 C.3        1 UNL1     0.1889
     2 C         -0.427683   -0.774342   0.648878 C.3        1 UNL1     0.1342
     3 C         -1.566207   -0.160617   1.478076 C.3        1 UNL1     0.1174
     4 C         -1.871299   -0.957693   2.748787 C.3        1 UNL1     0.1456
     5 C         -0.598486   -1.336407   3.527817 C.3        1 UNL1     0.2326
     6 O         0.28391   -2.076259   2.687064 O.3        1 UNL1     -0.3076
     7 O         0.037131   -0.214724   4.167455 O.3        1 UNL1     -0.4605
     8 C         -0.082212   1.000931   3.518248 C.ar        1 UNL1     0.1310
     9 C         -0.797778   1.221677   2.336497 C.ar        1 UNL1     0.0226
     10 C         -0.873622   2.496899   1.763821 C.ar        1 UNL1     0.1343
     11 C         -0.254899   3.588013   2.372502 C.ar        1 UNL1     0.1007
     12 C         0.496724   3.372433   3.530678 C.ar        1 UNL1     0.1389
     13 C         0.575026   2.089619   4.104862 C.ar        1 UNL1     0.0229
     14 C         -0.372447   4.971522   1.856518 C.2        1 UNL1     0.1740
     15 C         0.166064   6.047019   2.753658 C.3        1 UNL1     0.0520
     16 C         1.463533   5.550171   3.376294 C.3        1 UNL1     0.1322
     17 O         1.234599   4.353123   4.15201 O.3        1 UNL1     -0.4828
     18 C         2.624644   5.450664   2.384001 C.ar        1 UNL1     -0.0067
     19 C         3.181853   6.630495   1.849464 C.ar        1 UNL1     -0.0516
     20 C         4.212763   6.573723   0.903967 C.ar        1 UNL1     -0.0198
     21 C         4.68909   5.345927   0.480344 C.ar        1 UNL1     0.1169
     22 C         4.183569   4.167199   1.013154 C.ar        1 UNL1     -0.0198
     23 C         3.165334   4.224052   1.972332 C.ar        1 UNL1     -0.0516
     24 O         5.667617   5.329368   -0.469715 O.3        1 UNL1     -0.5068
     25 O         -0.940493   5.255022   0.805121 O.2        1 UNL1     -0.2917
     26 O         -1.586558   2.644842   0.609949 O.3        1 UNL1     -0.5058
     27 O         1.819017   -0.59945   1.697577 O.3        1 UNL1     -0.3648
     28 O         -1.011922   -1.77303   -0.207856 O.3        1 UNL1     -0.3841
     29 O         -1.315328   1.221849   1.738804 O.3        1 UNL1     -0.3863
     30 O         -2.574136   -2.167731   2.391689 O.3        1 UNL1     -0.3829
     31 H         1.088972   -2.266596   0.881706 H        1 UNL1     0.0937
     32 H         0.0   0.0   0.0 H        1 UNL1     0.0671
     33 H         -2.47718   -0.181029   0.863721 H        1 UNL1     0.0649
     34 H         -2.536531   -0.381255   3.401157 H        1 UNL1     0.0683
     35 H         -0.95722   -2.027774   4.300604 H        1 UNL1     0.1085
     36 H         -1.346932   0.425884   1.84531 H        1 UNL1     0.0691
     37 H         1.16754   1.947931   5.006164 H        1 UNL1     0.0691
     38 H         -0.589173   6.246949   3.521233 H        1 UNL1     0.0385
     39 H         0.310938   6.962346   2.169734 H        1 UNL1     0.0385
     40 H         1.776156   6.300481   4.115092 H        1 UNL1     0.0789
     41 H         2.819153   7.606374   2.158916 H        1 UNL1     0.0623
     42 H         4.626009   7.490342   0.490387 H        1 UNL1     0.0654
     43 H         4.559653   3.200679   0.69961 H        1 UNL1     0.0654
     44 H         2.801217   3.283777   2.375007 H        1 UNL1     0.0623
     45 H         5.400157   5.915967   -1.19572 H        1 UNL1     0.2921
     46 H         -1.745338   3.587955   0.446431 H        1 UNL1     0.2922
     47 H         2.136353   -0.246315   0.854693 H        1 UNL1     0.2126
     48 H         -0.356066   -1.960317   -0.906791 H        1 UNL1     0.2101
     49 H         -0.934976   1.326738   2.625441 H        1 UNL1     0.2100
     50 H         -3.456506   -1.914187   2.049854 H        1 UNL1     0.2102
@<TRIPOS>BOND
     1     1     2    1
     2     1     6    1
     3     2     3    1
     4     3     4    1
     5     3    29    1
     6     3    33    1
     7     4     5    1
     8     5     6    1
     9     5     7    1
    10     5    35    1
    11     7     8    1
    12     8     9   ar
    13     8    13   ar
    14     9    10   ar
    15     9    36    1
    16    10    11   ar
    17    10    26    1
    18    11    12   ar
    19    11    14    1
    20    12    13   ar
    21    12    17    1
    22    13    37    1
    23    14    15    1
    24    14    25    2
    25    15    16    1
    26    15    38    1
    27    15    39    1
    28    16    17    1
    29    16    18    1
    30    16    40    1
    31    18    19   ar
    32    18    23   ar
    33    19    20   ar
    34    19    41    1
    35    20    21   ar
    36    20    42    1
    37    21    22   ar
    38    21    24    1
    39    22    23   ar
    40    22    43    1
    41    23    44    1
    42    24    45    1
    43    26    46    1
    44    27    47    1
    45    28    48    1
    46    29    49    1
    47    30    50    1
    48     1    31    1
    49     1    27    1
    50     2    32    1
    51     2    28    1
    52     4    34    1
    53     4    30    1
