@<TRIPOS>MOLECULE
*****
 50 53 0 0 0
SMALL
GASTEIGER

@<TRIPOS>ATOM
     1 C         -0.477429   -1.934018   0.895791 C.3        1 UNL1     0.1889
     2 C         -0.791037   -0.438707   0.620773 C.3        1 UNL1     0.1342
     3 C         -0.973402   0.4206   1.881249 C.3        1 UNL1     0.1174
     4 C         -1.635027   -0.344226   3.03034 C.3        1 UNL1     0.1456
     5 C         -1.014145   -1.736233   3.247563 C.3        1 UNL1     0.2326
     6 O         -1.093832   -2.497129   2.044419 O.3        1 UNL1     -0.3076
     7 O         0.313224   -1.691651   3.802023 O.3        1 UNL1     -0.4605
     8 C         1.143821   -2.74746   3.472019 C.ar        1 UNL1     0.1310
     9 C         0.951347   -3.625492   2.399959 C.ar        1 UNL1     0.0226
     10 C         1.860853   -4.656726   2.136791 C.ar        1 UNL1     0.1343
     11 C         2.998609   -4.820377   2.925823 C.ar        1 UNL1     0.1007
     12 C         3.180257   -3.975354   4.023878 C.ar        1 UNL1     0.1389
     13 C         2.264228   -2.940185   4.28986 C.ar        1 UNL1     0.0229
     14 C         4.035168   -5.83994   2.642645 C.2        1 UNL1     0.1740
     15 C         5.292928   -5.72971   3.45347 C.3        1 UNL1     0.0520
     16 C         4.914042   -5.373439   4.88437 C.3        1 UNL1     0.1322
     17 O         4.206517   -4.114683   4.92922 O.3        1 UNL1     -0.4828
     18 C         4.229452   -6.513299   5.642512 C.ar        1 UNL1     -0.0067
     19 C         4.093174   -7.772958   5.023721 C.ar        1 UNL1     -0.0516
     20 C         3.430486   -8.823009   5.670404 C.ar        1 UNL1     -0.0198
     21 C         2.894456   -8.624347   6.930179 C.ar        1 UNL1     0.1169
     22 C         3.041688   -7.405297   7.579084 C.ar        1 UNL1     -0.0198
     23 C         3.720419   -6.360688   6.940198 C.ar        1 UNL1     -0.0516
     24 O         2.223011   -9.658597   7.513179 O.3        1 UNL1     -0.5068
     25 O         3.93132   -6.68085   1.753504 O.2        1 UNL1     -0.2917
     26 O         1.614682   -5.479424   1.07653 O.3        1 UNL1     -0.5058
     27 O         0.906631   -2.240816   0.840652 O.3        1 UNL1     -0.3648
     28 O         -2.015808   -0.360479   -0.131903 O.3        1 UNL1     -0.3841
     29 O         0.261273   1.031448   2.261481 O.3        1 UNL1     -0.3863
     30 O         -3.041973   -0.502892   2.745706 O.3        1 UNL1     -0.3829
     31 H         -0.912889   -2.502578   0.066819 H        1 UNL1     0.0937
     32 H         0.0   0.0   0.0 H        1 UNL1     0.0671
     33 H         -1.644097   1.252793   1.625626 H        1 UNL1     0.0649
     34 H         -1.558842   0.234449   3.957557 H        1 UNL1     0.0683
     35 H         -1.684522   -2.214679   3.97252 H        1 UNL1     0.1085
     36 H         0.116507   -3.516426   1.716389 H        1 UNL1     0.0691
     37 H         2.427737   -2.29657   5.151555 H        1 UNL1     0.0691
     38 H         5.910597   -4.946181   3.001702 H        1 UNL1     0.0385
     39 H         5.842432   -6.67537   3.393878 H        1 UNL1     0.0385
     40 H         5.848768   -5.182539   5.428764 H        1 UNL1     0.0789
     41 H         4.497143   -7.951505   4.031461 H        1 UNL1     0.0623
     42 H         3.321526   -9.786115   5.177894 H        1 UNL1     0.0654
     43 H         2.638923   -7.243535   8.571819 H        1 UNL1     0.0654
     44 H         3.826008   -5.4251   7.480912 H        1 UNL1     0.0623
     45 H         2.197014   -10.399565   6.886276 H        1 UNL1     0.2921
     46 H         2.324808   -6.136744   1.005375 H        1 UNL1     0.2922
     47 H         1.413592   -1.456615   0.58791 H        1 UNL1     0.2126
     48 H         -2.530132   -1.161336   0.086802 H        1 UNL1     0.2101
     49 H         0.373783   0.977026   3.22386 H        1 UNL1     0.2100
     50 H         -3.529472   0.187909   3.240531 H        1 UNL1     0.2102
@<TRIPOS>BOND
     1     1     2    1
     2     1     6    1
     3     2     3    1
     4     3     4    1
     5     3    29    1
     6     3    33    1
     7     4     5    1
     8     5     6    1
     9     5     7    1
    10     5    35    1
    11     7     8    1
    12     8     9   ar
    13     8    13   ar
    14     9    10   ar
    15     9    36    1
    16    10    11   ar
    17    10    26    1
    18    11    12   ar
    19    11    14    1
    20    12    13   ar
    21    12    17    1
    22    13    37    1
    23    14    15    1
    24    14    25    2
    25    15    16    1
    26    15    38    1
    27    15    39    1
    28    16    17    1
    29    16    18    1
    30    16    40    1
    31    18    19   ar
    32    18    23   ar
    33    19    20   ar
    34    19    41    1
    35    20    21   ar
    36    20    42    1
    37    21    22   ar
    38    21    24    1
    39    22    23   ar
    40    22    43    1
    41    23    44    1
    42    24    45    1
    43    26    46    1
    44    27    47    1
    45    28    48    1
    46    29    49    1
    47    30    50    1
    48     1    31    1
    49     1    27    1
    50     2    32    1
    51     2    28    1
    52     4    34    1
    53     4    30    1
