@<TRIPOS>MOLECULE
*****
 50 53 0 0 0
SMALL
GASTEIGER

@<TRIPOS>ATOM
     1 C         -0.347764   -1.340578   1.688998 C.3        1 UNL1     0.1889
     2 C         -0.470983   -0.973265   0.185722 C.3        1 UNL1     0.1342
     3 C         -1.910118   -0.944179   -0.351409 C.3        1 UNL1     0.1174
     4 C         -2.806961   -2.001937   0.296617 C.3        1 UNL1     0.1456
     5 C         -2.659992   -2.042084   1.828659 C.3        1 UNL1     0.2326
     6 O         -1.297944   -2.274444   2.180372 O.3        1 UNL1     -0.3076
     7 O         -3.227399   -0.896176   2.489162 O.3        1 UNL1     -0.4605
     8 C         -3.74956   -1.120315   3.750367 C.ar        1 UNL1     0.1310
     9 C         -4.580624   -2.188337   4.105279 C.ar        1 UNL1     0.0226
     10 C         -5.045604   -2.338607   5.417191 C.ar        1 UNL1     0.1343
     11 C         -4.671063   -1.43683   6.412359 C.ar        1 UNL1     0.1007
     12 C         -3.874944   -0.343364   6.061205 C.ar        1 UNL1     0.1389
     13 C         -3.409697   -0.191025   4.741444 C.ar        1 UNL1     0.0229
     14 C         -5.06466   -1.594561   7.831639 C.2        1 UNL1     0.1740
     15 C         -4.39294   -0.664642   8.798899 C.3        1 UNL1     0.0520
     16 C         -4.303321   0.713837   8.158803 C.3        1 UNL1     0.1322
     17 O         -3.535638   0.662501   6.936061 O.3        1 UNL1     -0.4828
     18 C         -5.653825   1.422664   8.030641 C.ar        1 UNL1     -0.0067
     19 C         -6.00925   2.019002   6.803339 C.ar        1 UNL1     -0.0516
     20 C         -7.215744   2.715765   6.666022 C.ar        1 UNL1     -0.0198
     21 C         -8.070088   2.829328   7.748162 C.ar        1 UNL1     0.1169
     22 C         -7.763319   2.224444   8.960122 C.ar        1 UNL1     -0.0198
     23 C         -6.565454   1.511931   9.092412 C.ar        1 UNL1     -0.0516
     24 O         -9.218449   3.547577   7.587588 O.3        1 UNL1     -0.5068
     25 O         -5.826372   -2.472517   8.22847 O.2        1 UNL1     -0.2917
     26 O         -5.85398   -3.401364   5.697658 O.3        1 UNL1     -0.5058
     27 O         -0.235567   -0.210746   2.53969 O.3        1 UNL1     -0.3648
     28 O         0.253709   -1.950873   -0.583569 O.3        1 UNL1     -0.3841
     29 O         -2.456995   0.373249   -0.265156 O.3        1 UNL1     -0.3863
     30 O         -2.468573   -3.300868   -0.236262 O.3        1 UNL1     -0.3829
     31 H         0.60832   -1.862355   1.806185 H        1 UNL1     0.0937
     32 H         0.0   0.0   0.0 H        1 UNL1     0.0671
     33 H         -1.871971   -1.17452   -1.425285 H        1 UNL1     0.0649
     34 H         -3.854841   -1.81271   0.03866 H        1 UNL1     0.0683
     35 H         -3.222912   -2.936035   2.125058 H        1 UNL1     0.1085
     36 H         -4.861986   -2.953869   3.390494 H        1 UNL1     0.0691
     37 H         -2.792106   0.669553   4.493493 H        1 UNL1     0.0691
     38 H         -3.396626   -1.068192   9.008736 H        1 UNL1     0.0385
     39 H         -4.960338   -0.650045   9.735715 H        1 UNL1     0.0385
     40 H         -3.706611   1.344846   8.831324 H        1 UNL1     0.0789
     41 H         -5.351594   1.951868   5.941578 H        1 UNL1     0.0623
     42 H         -7.473021   3.181368   5.717848 H        1 UNL1     0.0654
     43 H         -8.432174   2.294363   9.809625 H        1 UNL1     0.0654
     44 H         -6.362794   1.043132   10.050536 H        1 UNL1     0.0623
     45 H         -8.979734   4.460741   7.35985 H        1 UNL1     0.2921
     46 H         -5.462194   -3.925694   6.413893 H        1 UNL1     0.2922
     47 H         0.506823   0.34434   2.262929 H        1 UNL1     0.2126
     48 H         1.192997   -1.865956   -0.330072 H        1 UNL1     0.2101
     49 H         -2.017373   0.9556   -0.904996 H        1 UNL1     0.2100
     50 H         -2.704432   -3.307472   -1.187072 H        1 UNL1     0.2102
@<TRIPOS>BOND
     1     1     2    1
     2     1     6    1
     3     2     3    1
     4     3     4    1
     5     3    29    1
     6     3    33    1
     7     4     5    1
     8     5     6    1
     9     5     7    1
    10     5    35    1
    11     7     8    1
    12     8     9   ar
    13     8    13   ar
    14     9    10   ar
    15     9    36    1
    16    10    11   ar
    17    10    26    1
    18    11    12   ar
    19    11    14    1
    20    12    13   ar
    21    12    17    1
    22    13    37    1
    23    14    15    1
    24    14    25    2
    25    15    16    1
    26    15    38    1
    27    15    39    1
    28    16    17    1
    29    16    18    1
    30    16    40    1
    31    18    19   ar
    32    18    23   ar
    33    19    20   ar
    34    19    41    1
    35    20    21   ar
    36    20    42    1
    37    21    22   ar
    38    21    24    1
    39    22    23   ar
    40    22    43    1
    41    23    44    1
    42    24    45    1
    43    26    46    1
    44    27    47    1
    45    28    48    1
    46    29    49    1
    47    30    50    1
    48     1    31    1
    49     1    27    1
    50     2    32    1
    51     2    28    1
    52     4    34    1
    53     4    30    1
