@<TRIPOS>MOLECULE
*****
 50 53 0 0 0
SMALL
GASTEIGER

@<TRIPOS>ATOM
     1 C         -0.134925   -1.113179   1.874415 C.3        1 UNL1     0.1889
     2 C         -0.589964   -0.824851   0.41848 C.3        1 UNL1     0.1342
     3 C         -2.083886   -0.500201   0.265952 C.3        1 UNL1     0.1174
     4 C         -2.963719   -1.279428   1.246674 C.3        1 UNL1     0.1456
     5 C         -2.411637   -1.253667   2.683652 C.3        1 UNL1     0.2326
     6 O         -1.082734   -1.76991   2.703124 O.3        1 UNL1     -0.3076
     7 O         -2.528597   0.032061   3.319689 O.3        1 UNL1     -0.4605
     8 C         -2.721041   0.015529   4.689441 C.ar        1 UNL1     0.1310
     9 C         -3.617499   -0.813925   5.371841 C.ar        1 UNL1     0.0226
     10 C         -3.727726   -0.767948   6.766703 C.ar        1 UNL1     0.1343
     11 C         -2.926284   0.092634   7.515654 C.ar        1 UNL1     0.1007
     12 C         -2.056701   0.954876   6.842491 C.ar        1 UNL1     0.1389
     13 C         -1.947953   0.910323   5.439772 C.ar        1 UNL1     0.0229
     14 C         -2.941509   0.122681   8.996539 C.2        1 UNL1     0.1740
     15 C         -1.862236   0.942502   9.640443 C.3        1 UNL1     0.0520
     16 C         -1.680587   2.219934   8.832281 C.3        1 UNL1     0.1322
     17 O         -1.300703   1.916427   7.471898 O.3        1 UNL1     -0.4828
     18 C         -2.847768   3.201693   8.960975 C.ar        1 UNL1     -0.0067
     19 C         -2.954111   4.274148   8.05172 C.ar        1 UNL1     -0.0516
     20 C         -3.982187   5.217018   8.170124 C.ar        1 UNL1     -0.0198
     21 C         -4.90377   5.102918   9.195548 C.ar        1 UNL1     0.1169
     22 C         -4.845   4.039079   10.086408 C.ar        1 UNL1     -0.0198
     23 C         -3.827888   3.085756   9.957127 C.ar        1 UNL1     -0.0516
     24 O         -5.868593   6.061148   9.301911 O.3        1 UNL1     -0.5068
     25 O         -3.723788   -0.534567   9.678117 O.2        1 UNL1     -0.2917
     26 O         -4.622054   -1.602359   7.371286 O.3        1 UNL1     -0.5058
     27 O         0.435623   0.012884   2.521904 O.3        1 UNL1     -0.3648
     28 O         -0.320876   -1.990316   -0.382761 O.3        1 UNL1     -0.3841
     29 O         -2.304799   0.910428   0.324757 O.3        1 UNL1     -0.3863
     30 O         -3.057959   -2.652877   0.810271 O.3        1 UNL1     -0.3829
     31 H         0.688907   -1.832193   1.808094 H        1 UNL1     0.0937
     32 H         0.0   0.0   0.0 H        1 UNL1     0.0671
     33 H         -2.391046   -0.801724   -0.745214 H        1 UNL1     0.0649
     34 H         -3.980482   -0.871289   1.242511 H        1 UNL1     0.0683
     35 H         -3.041263   -1.973236   3.221862 H        1 UNL1     0.1085
     36 H         -4.22798   -1.543876   4.851644 H        1 UNL1     0.0691
     37 H         -1.264283   1.592838   4.939509 H        1 UNL1     0.0691
     38 H         -0.946248   0.342091   9.641329 H        1 UNL1     0.0385
     39 H         -2.138599   1.146351   10.680562 H        1 UNL1     0.0385
     40 H         -0.81112   2.745913   9.249286 H        1 UNL1     0.0789
     41 H         -2.237837   4.390984   7.243666 H        1 UNL1     0.0623
     42 H         -4.046502   6.046199   7.469886 H        1 UNL1     0.0654
     43 H         -5.570415   3.931764   10.884009 H        1 UNL1     0.0654
     44 H         -3.818495   2.261902   10.664249 H        1 UNL1     0.0623
     45 H         -5.439863   6.90564   9.51578 H        1 UNL1     0.2921
     46 H         -4.165345   -2.135681   8.04091 H        1 UNL1     0.2922
     47 H         1.162945   0.370071   1.993434 H        1 UNL1     0.2126
     48 H         0.647516   -2.029748   -0.502734 H        1 UNL1     0.2101
     49 H         -2.114417   1.310552   -0.538637 H        1 UNL1     0.2100
     50 H         -3.562523   -2.668524   -0.029303 H        1 UNL1     0.2102
@<TRIPOS>BOND
     1     1     2    1
     2     1     6    1
     3     2     3    1
     4     3     4    1
     5     3    29    1
     6     3    33    1
     7     4     5    1
     8     5     6    1
     9     5     7    1
    10     5    35    1
    11     7     8    1
    12     8     9   ar
    13     8    13   ar
    14     9    10   ar
    15     9    36    1
    16    10    11   ar
    17    10    26    1
    18    11    12   ar
    19    11    14    1
    20    12    13   ar
    21    12    17    1
    22    13    37    1
    23    14    15    1
    24    14    25    2
    25    15    16    1
    26    15    38    1
    27    15    39    1
    28    16    17    1
    29    16    18    1
    30    16    40    1
    31    18    19   ar
    32    18    23   ar
    33    19    20   ar
    34    19    41    1
    35    20    21   ar
    36    20    42    1
    37    21    22   ar
    38    21    24    1
    39    22    23   ar
    40    22    43    1
    41    23    44    1
    42    24    45    1
    43    26    46    1
    44    27    47    1
    45    28    48    1
    46    29    49    1
    47    30    50    1
    48     1    31    1
    49     1    27    1
    50     2    32    1
    51     2    28    1
    52     4    34    1
    53     4    30    1
