@<TRIPOS>MOLECULE
*****
 50 53 0 0 0
SMALL
GASTEIGER

@<TRIPOS>ATOM
     1 C         -0.272413   -1.288378   1.742607 C.3        1 UNL1     0.1889
     2 C         -0.829271   -0.437046   0.569967 C.3        1 UNL1     0.1342
     3 C         -1.792638   0.683015   0.991692 C.3        1 UNL1     0.1174
     4 C         -2.660561   0.298478   2.192508 C.3        1 UNL1     0.1456
     5 C         -1.84585   -0.351942   3.325452 C.3        1 UNL1     0.2326
     6 O         -1.157845   -1.499343   2.832514 O.3        1 UNL1     -0.3076
     7 O         -0.984045   0.571738   4.014965 O.3        1 UNL1     -0.4605
     8 C         0.37451   0.381905   3.836578 C.ar        1 UNL1     0.1310
     9 C         1.334173   1.398326   3.779702 C.ar        1 UNL1     0.0226
     10 C         2.692358   1.10281   3.61265 C.ar        1 UNL1     0.1343
     11 C         3.126927   -0.218859   3.522202 C.ar        1 UNL1     0.1007
     12 C         2.173656   -1.24055   3.536486 C.ar        1 UNL1     0.1389
     13 C         0.807796   -0.943018   3.701812 C.ar        1 UNL1     0.0229
     14 C         4.557501   -0.591618   3.429125 C.2        1 UNL1     0.1740
     15 C         4.857204   -2.055559   3.565517 C.3        1 UNL1     0.0520
     16 C         3.792459   -2.837846   2.809009 C.3        1 UNL1     0.1322
     17 O         2.479033   -2.568361   3.346932 O.3        1 UNL1     -0.4828
     18 C         3.894453   -2.704616   1.287637 C.ar        1 UNL1     -0.0067
     19 C         4.87913   -3.436627   0.59281 C.ar        1 UNL1     -0.0516
     20 C         5.030465   -3.30184   -0.792431 C.ar        1 UNL1     -0.0198
     21 C         4.210062   -2.434732   -1.491639 C.ar        1 UNL1     0.1169
     22 C         3.209247   -1.725452   -0.840386 C.ar        1 UNL1     -0.0198
     23 C         3.045595   -1.873965   0.542082 C.ar        1 UNL1     -0.0516
     24 O         4.41179   -2.301155   -2.833974 O.3        1 UNL1     -0.5068
     25 O         5.465033   0.229777   3.328216 O.2        1 UNL1     -0.2917
     26 O         3.577324   2.14014   3.564013 O.3        1 UNL1     -0.5058
     27 O         1.010763   -0.873316   2.183028 O.3        1 UNL1     -0.3648
     28 O         -1.5486   -1.306849   -0.323741 O.3        1 UNL1     -0.3841
     29 O         -1.087924   1.910502   1.188633 O.3        1 UNL1     -0.3863
     30 O         -3.680145   -0.629459   1.762307 O.3        1 UNL1     -0.3829
     31 H         -0.108589   -2.29668   1.346921 H        1 UNL1     0.0937
     32 H         0.0   0.0   0.0 H        1 UNL1     0.0671
     33 H         -2.476662   0.870723   0.15229 H        1 UNL1     0.0649
     34 H         -3.176115   1.184083   2.580204 H        1 UNL1     0.0683
     35 H         -2.608938   -0.714038   4.025783 H        1 UNL1     0.1085
     36 H         1.066725   2.442426   3.899901 H        1 UNL1     0.0691
     37 H         0.085479   -1.756471   3.708539 H        1 UNL1     0.0691
     38 H         4.841889   -2.298666   4.633314 H        1 UNL1     0.0385
     39 H         5.864959   -2.25267   3.184261 H        1 UNL1     0.0385
     40 H         3.962219   -3.902454   3.019511 H        1 UNL1     0.0789
     41 H         5.541569   -4.116895   1.120124 H        1 UNL1     0.0623
     42 H         5.8013   -3.8628   -1.315067 H        1 UNL1     0.0654
     43 H         2.55142   -1.055065   -1.380528 H        1 UNL1     0.0654
     44 H         2.246675   -1.312463   1.016727 H        1 UNL1     0.0623
     45 H         4.151905   -1.40288   -3.095275 H        1 UNL1     0.2921
     46 H         4.310368   1.96899   4.176195 H        1 UNL1     0.2922
     47 H         1.575568   -1.642659   2.341034 H        1 UNL1     0.2126
     48 H         -2.497551   -1.188449   -0.125737 H        1 UNL1     0.2101
     49 H         -0.297466   1.754115   1.729477 H        1 UNL1     0.2100
     50 H         -3.24451   -1.336381   1.242502 H        1 UNL1     0.2102
@<TRIPOS>BOND
     1     1     2    1
     2     1     6    1
     3     2     3    1
     4     3     4    1
     5     3    29    1
     6     3    33    1
     7     4     5    1
     8     5     6    1
     9     5     7    1
    10     5    35    1
    11     7     8    1
    12     8     9   ar
    13     8    13   ar
    14     9    10   ar
    15     9    36    1
    16    10    11   ar
    17    10    26    1
    18    11    12   ar
    19    11    14    1
    20    12    13   ar
    21    12    17    1
    22    13    37    1
    23    14    15    1
    24    14    25    2
    25    15    16    1
    26    15    38    1
    27    15    39    1
    28    16    17    1
    29    16    18    1
    30    16    40    1
    31    18    19   ar
    32    18    23   ar
    33    19    20   ar
    34    19    41    1
    35    20    21   ar
    36    20    42    1
    37    21    22   ar
    38    21    24    1
    39    22    23   ar
    40    22    43    1
    41    23    44    1
    42    24    45    1
    43    26    46    1
    44    27    47    1
    45    28    48    1
    46    29    49    1
    47    30    50    1
    48     1    31    1
    49     1    27    1
    50     2    32    1
    51     2    28    1
    52     4    34    1
    53     4    30    1
