@<TRIPOS>MOLECULE
*****
 50 53 0 0 0
SMALL
GASTEIGER

@<TRIPOS>ATOM
     1 C         -0.493416   -1.221252   1.74238 C.3        1 UNL1     0.1889
     2 C         -0.504746   -0.950294   0.213854 C.3        1 UNL1     0.1342
     3 C         -1.902583   -0.929742   -0.423402 C.3        1 UNL1     0.1174
     4 C         -2.865734   -1.926431   0.226266 C.3        1 UNL1     0.1456
     5 C         -2.82521   -1.869537   1.76428 C.3        1 UNL1     0.2326
     6 O         -1.49618   -2.103541   2.224485 O.3        1 UNL1     -0.3076
     7 O         -3.410262   -0.672849   2.309233 O.3        1 UNL1     -0.4605
     8 C         -4.026031   -0.805657   3.540784 C.ar        1 UNL1     0.1310
     9 C         -4.905808   -1.832294   3.900383 C.ar        1 UNL1     0.0226
     10 C         -5.466377   -1.889281   5.181951 C.ar        1 UNL1     0.1343
     11 C         -5.141837   -0.9333   6.14352 C.ar        1 UNL1     0.1007
     12 C         -4.296558   0.11965   5.783542 C.ar        1 UNL1     0.1389
     13 C         -3.735115   0.178196   4.494052 C.ar        1 UNL1     0.0229
     14 C         -5.639038   -0.992275   7.537603 C.2        1 UNL1     0.1740
     15 C         -5.015493   -0.015834   8.491177 C.3        1 UNL1     0.0520
     16 C         -4.847285   1.316908   7.774615 C.3        1 UNL1     0.1322
     17 O         -3.996082   1.172492   6.616311 O.3        1 UNL1     -0.4828
     18 C         -6.167724   2.042489   7.50499 C.ar        1 UNL1     -0.0067
     19 C         -6.420472   2.566066   6.220389 C.ar        1 UNL1     -0.0516
     20 C         -7.596947   3.276197   5.95284 C.ar        1 UNL1     -0.0198
     21 C         -8.523065   3.475421   6.961027 C.ar        1 UNL1     0.1169
     22 C         -8.317953   2.943291   8.227363 C.ar        1 UNL1     -0.0198
     23 C         -7.150105   2.217294   8.490264 C.ar        1 UNL1     -0.0516
     24 O         -9.6394   4.204361   6.673202 O.3        1 UNL1     -0.5068
     25 O         -6.448041   -1.827954   7.932113 O.2        1 UNL1     -0.2917
     26 O         -6.318109   -2.915866   5.468763 O.3        1 UNL1     -0.5058
     27 O         -0.414064   -0.040733   2.525238 O.3        1 UNL1     -0.3648
     28 O         0.248492   -1.989037   -0.439103 O.3        1 UNL1     -0.3841
     29 O         -2.423827   0.400343   -0.459601 O.3        1 UNL1     -0.3863
     30 O         -2.521359   -3.263278   -0.197922 O.3        1 UNL1     -0.3829
     31 H         0.440191   -1.751799   1.959121 H        1 UNL1     0.0937
     32 H         0.0   0.0   0.0 H        1 UNL1     0.0671
     33 H         -1.796104   -1.230109   -1.475144 H        1 UNL1     0.0649
     34 H         -3.888839   -1.735142   -0.115881 H        1 UNL1     0.0683
     35 H         -3.427435   -2.731808   2.076837 H        1 UNL1     0.1085
     36 H         -5.154071   -2.636252   3.216177 H        1 UNL1     0.0691
     37 H         -3.080829   1.008878   4.238377 H        1 UNL1     0.0691
     38 H         -4.046668   -0.424646   8.797411 H        1 UNL1     0.0385
     39 H         -5.647537   0.069724   9.381671 H        1 UNL1     0.0385
     40 H         -4.284812   1.977751   8.447988 H        1 UNL1     0.0789
     41 H         -5.70503   2.431111   5.414423 H        1 UNL1     0.0623
     42 H         -7.77483   3.685237   4.961348 H        1 UNL1     0.0654
     43 H         -9.043623   3.080463   9.020141 H        1 UNL1     0.0654
     44 H         -7.02747   1.806774   9.4879 H        1 UNL1     0.0623
     45 H         -9.364417   5.103003   6.429185 H        1 UNL1     0.2921
     46 H         -5.991029   -3.400961   6.242786 H        1 UNL1     0.2922
     47 H         0.35183   0.486813   2.25885 H        1 UNL1     0.2126
     48 H         1.169863   -1.905103   -0.126432 H        1 UNL1     0.2101
     49 H         -1.928132   0.931655   -1.102863 H        1 UNL1     0.2100
     50 H         -2.691497   -3.327375   -1.160552 H        1 UNL1     0.2102
@<TRIPOS>BOND
     1     1     2    1
     2     1     6    1
     3     2     3    1
     4     3     4    1
     5     3    29    1
     6     3    33    1
     7     4     5    1
     8     5     6    1
     9     5     7    1
    10     5    35    1
    11     7     8    1
    12     8     9   ar
    13     8    13   ar
    14     9    10   ar
    15     9    36    1
    16    10    11   ar
    17    10    26    1
    18    11    12   ar
    19    11    14    1
    20    12    13   ar
    21    12    17    1
    22    13    37    1
    23    14    15    1
    24    14    25    2
    25    15    16    1
    26    15    38    1
    27    15    39    1
    28    16    17    1
    29    16    18    1
    30    16    40    1
    31    18    19   ar
    32    18    23   ar
    33    19    20   ar
    34    19    41    1
    35    20    21   ar
    36    20    42    1
    37    21    22   ar
    38    21    24    1
    39    22    23   ar
    40    22    43    1
    41    23    44    1
    42    24    45    1
    43    26    46    1
    44    27    47    1
    45    28    48    1
    46    29    49    1
    47    30    50    1
    48     1    31    1
    49     1    27    1
    50     2    32    1
    51     2    28    1
    52     4    34    1
    53     4    30    1
