@<TRIPOS>MOLECULE
*****
 50 53 0 0 0
SMALL
GASTEIGER

@<TRIPOS>ATOM
     1 C         -0.206746   -0.849156   -2.001748 C.3        1 UNL1     0.1889
     2 C         0.146067   -0.968259   -0.494672 C.3        1 UNL1     0.1342
     3 C         1.570081   -1.468163   -0.207016 C.3        1 UNL1     0.1174
     4 C         2.057485   -2.494203   -1.233075 C.3        1 UNL1     0.1456
     5 C         1.775945   -2.058789   -2.682735 C.3        1 UNL1     0.2326
     6 O         0.381178   -1.819123   -2.856093 O.3        1 UNL1     -0.3076
     7 O         2.597461   -0.961558   -3.121501 O.3        1 UNL1     -0.4605
     8 C         2.145744   0.303655   -2.791777 C.ar        1 UNL1     0.1310
     9 C         2.276997   0.909659   -1.537651 C.ar        1 UNL1     0.0226
     10 C         1.800378   2.205556   -1.306598 C.ar        1 UNL1     0.1343
     11 C         1.201636   2.93663   -2.331722 C.ar        1 UNL1     0.1007
     12 C         1.028058   2.326883   -3.577059 C.ar        1 UNL1     0.1389
     13 C         1.505009   1.022876   -3.808389 C.ar        1 UNL1     0.0229
     14 C         0.755853   4.33949   -2.166145 C.2        1 UNL1     0.1740
     15 C         0.341864   5.042161   -3.425675 C.3        1 UNL1     0.0520
     16 C         -0.448098   4.064864   -4.285215 C.3        1 UNL1     0.1322
     17 O         0.35648   2.913884   -4.624284 O.3        1 UNL1     -0.4828
     18 C         -1.831344   3.728492   -3.722891 C.ar        1 UNL1     -0.0067
     19 C         -2.387809   2.456245   -3.967732 C.ar        1 UNL1     -0.0516
     20 C         -3.670094   2.132594   -3.508429 C.ar        1 UNL1     -0.0198
     21 C         -4.407281   3.072823   -2.811039 C.ar        1 UNL1     0.1169
     22 C         -3.873312   4.322665   -2.52536 C.ar        1 UNL1     -0.0198
     23 C         -2.583823   4.640192   -2.968588 C.ar        1 UNL1     -0.0516
     24 O         -5.667081   2.734727   -2.412297 O.3        1 UNL1     -0.5068
     25 O         0.789331   4.937469   -1.093865 O.2        1 UNL1     -0.2917
     26 O         1.958527   2.738807   -0.060717 O.3        1 UNL1     -0.5058
     27 O         -0.053005   0.463998   -2.516313 O.3        1 UNL1     -0.3648
     28 O         -0.766405   -1.900051   0.115135 O.3        1 UNL1     -0.3841
     29 O         2.47121   -0.370032   -0.051421 O.3        1 UNL1     -0.3863
     30 O         1.398111   -3.756102   -0.991155 O.3        1 UNL1     -0.3829
     31 H         -1.280401   -1.048743   -2.088406 H        1 UNL1     0.0937
     32 H         0.0   0.0   0.0 H        1 UNL1     0.0671
     33 H         1.556951   -1.975208   0.767895 H        1 UNL1     0.0649
     34 H         3.132547   -2.66535   -1.109176 H        1 UNL1     0.0683
     35 H         2.023501   -2.946396   -3.278342 H        1 UNL1     0.1085
     36 H         2.782789   0.415216   -0.715568 H        1 UNL1     0.0691
     37 H         1.356494   0.57023   -4.786422 H        1 UNL1     0.0691
     38 H         1.253282   5.370235   -3.936763 H        1 UNL1     0.0385
     39 H         -0.243025   5.930896   -3.165229 H        1 UNL1     0.0385
     40 H         -0.638007   4.560074   -5.247099 H        1 UNL1     0.0789
     41 H         -1.832989   1.703865   -4.520679 H        1 UNL1     0.0623
     42 H         -4.092859   1.152256   -3.713898 H        1 UNL1     0.0654
     43 H         -4.436068   5.061215   -1.967007 H        1 UNL1     0.0654
     44 H         -2.194034   5.622182   -2.718374 H        1 UNL1     0.0623
     45 H         -5.880071   3.237762   -1.609609 H        1 UNL1     0.2921
     46 H         1.446616   3.560255   0.006967 H        1 UNL1     0.2922
     47 H         0.326704   1.045252   -1.842648 H        1 UNL1     0.2126
     48 H         -0.220722   -2.552629   0.594827 H        1 UNL1     0.2101
     49 H         3.137425   -0.38732   -0.756866 H        1 UNL1     0.2100
     50 H         0.709408   -3.872974   -1.677989 H        1 UNL1     0.2102
@<TRIPOS>BOND
     1     1     2    1
     2     1     6    1
     3     2     3    1
     4     3     4    1
     5     3    29    1
     6     3    33    1
     7     4     5    1
     8     5     6    1
     9     5     7    1
    10     5    35    1
    11     7     8    1
    12     8     9   ar
    13     8    13   ar
    14     9    10   ar
    15     9    36    1
    16    10    11   ar
    17    10    26    1
    18    11    12   ar
    19    11    14    1
    20    12    13   ar
    21    12    17    1
    22    13    37    1
    23    14    15    1
    24    14    25    2
    25    15    16    1
    26    15    38    1
    27    15    39    1
    28    16    17    1
    29    16    18    1
    30    16    40    1
    31    18    19   ar
    32    18    23   ar
    33    19    20   ar
    34    19    41    1
    35    20    21   ar
    36    20    42    1
    37    21    22   ar
    38    21    24    1
    39    22    23   ar
    40    22    43    1
    41    23    44    1
    42    24    45    1
    43    26    46    1
    44    27    47    1
    45    28    48    1
    46    29    49    1
    47    30    50    1
    48     1    31    1
    49     1    27    1
    50     2    32    1
    51     2    28    1
    52     4    34    1
    53     4    30    1
