@<TRIPOS>MOLECULE
*****
 50 53 0 0 0
SMALL
GASTEIGER

@<TRIPOS>ATOM
     1 C         0.939523   -1.663566   1.058607 C.3        1 UNL1     0.1889
     2 C         -0.300181   -0.812141   0.673706 C.3        1 UNL1     0.1342
     3 C         -1.064823   -0.217248   1.866137 C.3        1 UNL1     0.1174
     4 C         -1.066817   -1.138057   3.088931 C.3        1 UNL1     0.1456
     5 C         0.328748   -1.708929   3.400169 C.3        1 UNL1     0.2326
     6 O         0.83288   -2.406974   2.263749 O.3        1 UNL1     -0.3076
     7 O         1.247475   -0.728113   3.915204 O.3        1 UNL1     -0.4605
     8 C         0.796146   0.021613   4.986531 C.ar        1 UNL1     0.1310
     9 C         -0.452849   0.646471   5.069391 C.ar        1 UNL1     0.0226
     10 C         -0.825191   1.371716   6.207496 C.ar        1 UNL1     0.1343
     11 C         0.033992   1.469832   7.301123 C.ar        1 UNL1     0.1007
     12 C         1.299975   0.884647   7.213788 C.ar        1 UNL1     0.1389
     13 C         1.675152   0.157701   6.068265 C.ar        1 UNL1     0.0229
     14 C         -0.340979   2.152458   8.561112 C.2        1 UNL1     0.1740
     15 C         0.611134   1.970263   9.706466 C.3        1 UNL1     0.0520
     16 C         2.03307   2.045072   9.167524 C.3        1 UNL1     0.1322
     17 O         2.264663   1.010323   8.186336 O.3        1 UNL1     -0.4828
     18 C         2.44934   3.448321   8.719938 C.ar        1 UNL1     -0.0067
     19 C         2.764637   3.677976   7.364925 C.ar        1 UNL1     -0.0516
     20 C         3.194439   4.937699   6.930953 C.ar        1 UNL1     -0.0198
     21 C         3.319815   5.971681   7.841442 C.ar        1 UNL1     0.1169
     22 C         2.98475   5.785374   9.176306 C.ar        1 UNL1     -0.0198
     23 C         2.537272   4.5307   9.607135 C.ar        1 UNL1     -0.0516
     24 O         3.777491   7.174274   7.389001 O.3        1 UNL1     -0.5068
     25 O         -1.394552   2.76587   8.710091 O.2        1 UNL1     -0.2917
     26 O         -2.057011   1.958154   6.224679 O.3        1 UNL1     -0.5058
     27 O         2.161232   -0.945329   0.992655 O.3        1 UNL1     -0.3648
     28 O         -1.220757   -1.648622   -0.051239 O.3        1 UNL1     -0.3841
     29 O         -0.594033   1.098512   2.164912 O.3        1 UNL1     -0.3863
     30 O         -1.975404   -2.235741   2.853883 O.3        1 UNL1     -0.3829
     31 H         1.039309   -2.436621   0.288861 H        1 UNL1     0.0937
     32 H         0.0   0.0   0.0 H        1 UNL1     0.0671
     33 H         -2.113288   -0.090013   1.562407 H        1 UNL1     0.0649
     34 H         -1.439279   -0.595617   3.964963 H        1 UNL1     0.0683
     35 H         0.14005   -2.459668   4.177769 H        1 UNL1     0.1085
     36 H         -1.187159   0.5606   4.275959 H        1 UNL1     0.0691
     37 H         2.666838   -0.287434   6.024598 H        1 UNL1     0.0691
     38 H         0.408894   0.990693   10.152637 H        1 UNL1     0.0385
     39 H         0.414033   2.737808   10.462644 H        1 UNL1     0.0385
     40 H         2.707357   1.792683   9.997077 H        1 UNL1     0.0789
     41 H         2.683178   2.880316   6.632291 H        1 UNL1     0.0623
     42 H         3.44598   5.099057   5.885629 H        1 UNL1     0.0654
     43 H         3.064867   6.592267   9.894926 H        1 UNL1     0.0654
     44 H         2.274105   4.42366   10.655052 H        1 UNL1     0.0623
     45 H         4.279028   7.599923   8.103144 H        1 UNL1     0.2921
     46 H         -2.025869   2.790821   5.72758 H        1 UNL1     0.2922
     47 H         2.242444   -0.500654   0.137361 H        1 UNL1     0.2126
     48 H         -2.098527   -1.226702   0.021125 H        1 UNL1     0.2101
     49 H         -0.155207   1.476714   1.386331 H        1 UNL1     0.2100
     50 H         -2.853484   -1.859226   2.637262 H        1 UNL1     0.2102
@<TRIPOS>BOND
     1     1     2    1
     2     1     6    1
     3     2     3    1
     4     3     4    1
     5     3    29    1
     6     3    33    1
     7     4     5    1
     8     5     6    1
     9     5     7    1
    10     5    35    1
    11     7     8    1
    12     8     9   ar
    13     8    13   ar
    14     9    10   ar
    15     9    36    1
    16    10    11   ar
    17    10    26    1
    18    11    12   ar
    19    11    14    1
    20    12    13   ar
    21    12    17    1
    22    13    37    1
    23    14    15    1
    24    14    25    2
    25    15    16    1
    26    15    38    1
    27    15    39    1
    28    16    17    1
    29    16    18    1
    30    16    40    1
    31    18    19   ar
    32    18    23   ar
    33    19    20   ar
    34    19    41    1
    35    20    21   ar
    36    20    42    1
    37    21    22   ar
    38    21    24    1
    39    22    23   ar
    40    22    43    1
    41    23    44    1
    42    24    45    1
    43    26    46    1
    44    27    47    1
    45    28    48    1
    46    29    49    1
    47    30    50    1
    48     1    31    1
    49     1    27    1
    50     2    32    1
    51     2    28    1
    52     4    34    1
    53     4    30    1
