@<TRIPOS>MOLECULE
*****
 50 53 0 0 0
SMALL
GASTEIGER

@<TRIPOS>ATOM
     1 C         -0.342438   -1.337484   1.692535 C.3        1 UNL1     0.1889
     2 C         -0.463545   -0.976478   0.187561 C.3        1 UNL1     0.1342
     3 C         -1.901023   -0.961205   -0.354553 C.3        1 UNL1     0.1174
     4 C         -2.791296   -2.024081   0.294159 C.3        1 UNL1     0.1456
     5 C         -2.649246   -2.057637   1.826824 C.3        1 UNL1     0.2326
     6 O         -1.286534   -2.277465   2.183978 O.3        1 UNL1     -0.3076
     7 O         -3.228376   -0.914163   2.481342 O.3        1 UNL1     -0.4605
     8 C         -3.746206   -1.136537   3.744644 C.ar        1 UNL1     0.1310
     9 C         -4.564864   -2.211564   4.107159 C.ar        1 UNL1     0.0226
     10 C         -5.026263   -2.359139   5.420641 C.ar        1 UNL1     0.1343
     11 C         -4.660315   -1.44734   6.409856 C.ar        1 UNL1     0.1007
     12 C         -3.876877   -0.347236   6.050998 C.ar        1 UNL1     0.1389
     13 C         -3.415246   -0.197636   4.729656 C.ar        1 UNL1     0.0229
     14 C         -5.050098   -1.600944   7.830641 C.2        1 UNL1     0.1740
     15 C         -4.387343   -0.657878   8.791334 C.3        1 UNL1     0.0520
     16 C         -4.313936   0.717662   8.142904 C.3        1 UNL1     0.1322
     17 O         -3.547489   0.667534   6.919337 O.3        1 UNL1     -0.4828
     18 C         -5.672401   1.410703   8.012553 C.ar        1 UNL1     -0.0067
     19 C         -6.042424   1.982685   6.777996 C.ar        1 UNL1     -0.0516
     20 C         -7.256832   2.664948   6.63766 C.ar        1 UNL1     -0.0198
     21 C         -8.104678   2.7882   7.723843 C.ar        1 UNL1     0.1169
     22 C         -7.783328   2.206927   8.943554 C.ar        1 UNL1     -0.0198
     23 C         -6.577425   1.508746   9.079189 C.ar        1 UNL1     -0.0516
     24 O         -9.261338   3.492133   7.559476 O.3        1 UNL1     -0.5068
     25 O         -5.801456   -2.4849   8.233838 O.2        1 UNL1     -0.2917
     26 O         -5.822399   -3.429094   5.708647 O.3        1 UNL1     -0.5058
     27 O         -0.24251   -0.203785   2.539605 O.3        1 UNL1     -0.3648
     28 O         0.271844   -1.950737   -0.575805 O.3        1 UNL1     -0.3841
     29 O         -2.459077   0.35194   -0.274814 O.3        1 UNL1     -0.3863
     30 O         -2.440346   -3.322024   -0.232973 O.3        1 UNL1     -0.3829
     31 H         0.617524   -1.850905   1.814811 H        1 UNL1     0.0937
     32 H         0.0   0.0   0.0 H        1 UNL1     0.0671
     33 H         -1.857294   -1.194985   -1.427472 H        1 UNL1     0.0649
     34 H         -3.839816   -1.844452   0.031979 H        1 UNL1     0.0683
     35 H         -3.20576   -2.955178   2.124468 H        1 UNL1     0.1085
     36 H         -4.838746   -2.984422   3.39737 H        1 UNL1     0.0691
     37 H         -2.807593   0.668237   4.475656 H        1 UNL1     0.0691
     38 H         -3.386314   -1.049102   9.002072 H        1 UNL1     0.0385
     39 H         -4.953521   -0.643975   9.728898 H        1 UNL1     0.0385
     40 H         -3.723294   1.35925   8.810757 H        1 UNL1     0.0789
     41 H         -5.390176   1.907606   5.912787 H        1 UNL1     0.0623
     42 H         -7.525438   3.111908   5.683674 H        1 UNL1     0.0654
     43 H         -8.446889   2.284473   9.79654 H        1 UNL1     0.0654
     44 H         -6.36333   1.058213   10.043569 H        1 UNL1     0.0623
     45 H         -9.033505   4.403124   7.312687 H        1 UNL1     0.2921
     46 H         -5.423794   -3.944764   6.427403 H        1 UNL1     0.2922
     47 H         0.499597   0.35363   2.266794 H        1 UNL1     0.2126
     48 H         1.2058   -1.874599   -0.300739 H        1 UNL1     0.2101
     49 H         -2.018302   0.937047   -0.911337 H        1 UNL1     0.2100
     50 H         -2.672884   -3.333916   -1.184549 H        1 UNL1     0.2102
@<TRIPOS>BOND
     1     1     2    1
     2     1     6    1
     3     2     3    1
     4     3     4    1
     5     3    29    1
     6     3    33    1
     7     4     5    1
     8     5     6    1
     9     5     7    1
    10     5    35    1
    11     7     8    1
    12     8     9   ar
    13     8    13   ar
    14     9    10   ar
    15     9    36    1
    16    10    11   ar
    17    10    26    1
    18    11    12   ar
    19    11    14    1
    20    12    13   ar
    21    12    17    1
    22    13    37    1
    23    14    15    1
    24    14    25    2
    25    15    16    1
    26    15    38    1
    27    15    39    1
    28    16    17    1
    29    16    18    1
    30    16    40    1
    31    18    19   ar
    32    18    23   ar
    33    19    20   ar
    34    19    41    1
    35    20    21   ar
    36    20    42    1
    37    21    22   ar
    38    21    24    1
    39    22    23   ar
    40    22    43    1
    41    23    44    1
    42    24    45    1
    43    26    46    1
    44    27    47    1
    45    28    48    1
    46    29    49    1
    47    30    50    1
    48     1    31    1
    49     1    27    1
    50     2    32    1
    51     2    28    1
    52     4    34    1
    53     4    30    1
