@<TRIPOS>MOLECULE
*****
 50 53 0 0 0
SMALL
GASTEIGER

@<TRIPOS>ATOM
     1 C         -0.476284   -1.533753   1.480392 C.3        1 UNL1     0.1889
     2 C         -0.398863   -1.021854   0.016867 C.3        1 UNL1     0.1342
     3 C         -1.733102   -1.051607   -0.744308 C.3        1 UNL1     0.1174
     4 C         -2.614461   -2.239694   -0.350898 C.3        1 UNL1     0.1456
     5 C         -2.704293   -2.4284   1.17445 C.3        1 UNL1     0.2326
     6 O         -1.39758   -2.586861   1.722409 O.3        1 UNL1     -0.3076
     7 O         -3.474443   -1.407049   1.83402 O.3        1 UNL1     -0.4605
     8 C         -4.165484   -1.804058   2.964672 C.ar        1 UNL1     0.1310
     9 C         -5.175198   -2.771833   2.999148 C.ar        1 UNL1     0.0226
     10 C         -5.805403   -3.117771   4.200427 C.ar        1 UNL1     0.1343
     11 C         -5.424264   -2.520784   5.401335 C.ar        1 UNL1     0.1007
     12 C         -4.445726   -1.523554   5.373432 C.ar        1 UNL1     0.1389
     13 C         -3.814057   -1.174006   4.165027 C.ar        1 UNL1     0.0229
     14 C         -5.997772   -2.908326   6.710936 C.2        1 UNL1     0.1740
     15 C         -5.317256   -2.327072   7.915341 C.3        1 UNL1     0.0520
     16 C         -4.959375   -0.878224   7.614149 C.3        1 UNL1     0.1322
     17 O         -4.070529   -0.795053   6.478321 O.3        1 UNL1     -0.4828
     18 C         -6.171563   0.053397   7.540611 C.ar        1 UNL1     -0.0067
     19 C         -6.359972   1.0253   8.544663 C.ar        1 UNL1     -0.0516
     20 C         -7.482733   1.861506   8.533313 C.ar        1 UNL1     -0.0198
     21 C         -8.425916   1.731073   7.529709 C.ar        1 UNL1     0.1169
     22 C         -8.251296   0.806024   6.508616 C.ar        1 UNL1     -0.0198
     23 C         -7.119304   -0.017778   6.509537 C.ar        1 UNL1     -0.0516
     24 O         -9.525368   2.537158   7.572501 O.3        1 UNL1     -0.5068
     25 O         -6.917167   -3.713211   6.834862 O.2        1 UNL1     -0.2917
     26 O         -6.783453   -4.068453   4.165695 O.3        1 UNL1     -0.5058
     27 O         -0.606276   -0.494018   2.436865 O.3        1 UNL1     -0.3648
     28 O         0.526746   -1.852408   -0.708484 O.3        1 UNL1     -0.3841
     29 O         -2.410197   0.201621   -0.629878 O.3        1 UNL1     -0.3863
     30 O         -2.07469   -3.444401   -0.936573 O.3        1 UNL1     -0.3829
     31 H         0.495421   -1.986929   1.705109 H        1 UNL1     0.0937
     32 H         0.0   0.0   0.0 H        1 UNL1     0.0671
     33 H         -1.506622   -1.16429   -1.813761 H        1 UNL1     0.0649
     34 H         -3.622733   -2.108736   -0.759111 H        1 UNL1     0.0683
     35 H         -3.21834   -3.390578   1.292132 H        1 UNL1     0.1085
     36 H         -5.477821   -3.312124   2.108853 H        1 UNL1     0.0691
     37 H         -3.056033   -0.393705   4.169913 H        1 UNL1     0.0691
     38 H         -4.419368   -2.92372   8.108563 H        1 UNL1     0.0385
     39 H         -5.981349   -2.418035   8.781647 H        1 UNL1     0.0385
     40 H         -4.360951   -0.510343   8.458585 H        1 UNL1     0.0789
     41 H         -5.6387   1.141346   9.348374 H        1 UNL1     0.0623
     42 H         -7.622771   2.599024   9.319741 H        1 UNL1     0.0654
     43 H         -8.976122   0.705762   5.709563 H        1 UNL1     0.0654
     44 H         -7.009674   -0.72206   5.690505 H        1 UNL1     0.0623
     45 H         -9.390119   3.273405   6.954144 H        1 UNL1     0.2921
     46 H         -6.717397   -4.629533   4.954515 H        1 UNL1     0.2922
     47 H         0.108524   0.14925   2.331372 H        1 UNL1     0.2126
     48 H         1.420167   -1.619485   -0.390242 H        1 UNL1     0.2101
     49 H         -3.08218   0.151104   0.068463 H        1 UNL1     0.2100
     50 H         -2.178745   -3.379937   -1.908545 H        1 UNL1     0.2102
@<TRIPOS>BOND
     1     1     2    1
     2     1     6    1
     3     2     3    1
     4     3     4    1
     5     3    29    1
     6     3    33    1
     7     4     5    1
     8     5     6    1
     9     5     7    1
    10     5    35    1
    11     7     8    1
    12     8     9   ar
    13     8    13   ar
    14     9    10   ar
    15     9    36    1
    16    10    11   ar
    17    10    26    1
    18    11    12   ar
    19    11    14    1
    20    12    13   ar
    21    12    17    1
    22    13    37    1
    23    14    15    1
    24    14    25    2
    25    15    16    1
    26    15    38    1
    27    15    39    1
    28    16    17    1
    29    16    18    1
    30    16    40    1
    31    18    19   ar
    32    18    23   ar
    33    19    20   ar
    34    19    41    1
    35    20    21   ar
    36    20    42    1
    37    21    22   ar
    38    21    24    1
    39    22    23   ar
    40    22    43    1
    41    23    44    1
    42    24    45    1
    43    26    46    1
    44    27    47    1
    45    28    48    1
    46    29    49    1
    47    30    50    1
    48     1    31    1
    49     1    27    1
    50     2    32    1
    51     2    28    1
    52     4    34    1
    53     4    30    1
