@<TRIPOS>MOLECULE
*****
 50 53 0 0 0
SMALL
GASTEIGER

@<TRIPOS>ATOM
     1 C         -0.339057   -1.333322   1.696495 C.3        1 UNL1     0.1889
     2 C         -0.465685   -0.974713   0.191402 C.3        1 UNL1     0.1342
     3 C         -1.905481   -0.95605   -0.344418 C.3        1 UNL1     0.1174
     4 C         -2.796121   -2.01501   0.310165 C.3        1 UNL1     0.1456
     5 C         -2.647433   -2.046184   1.84225 C.3        1 UNL1     0.2326
     6 O         -1.283838   -2.269513   2.19382 O.3        1 UNL1     -0.3076
     7 O         -3.220196   -0.899748   2.49719 O.3        1 UNL1     -0.4605
     8 C         -3.733137   -1.11822   3.763164 C.ar        1 UNL1     0.1310
     9 C         -4.55346   -2.190076   4.131261 C.ar        1 UNL1     0.0226
     10 C         -5.009523   -2.33383   5.447029 C.ar        1 UNL1     0.1343
     11 C         -4.636454   -1.421336   6.432937 C.ar        1 UNL1     0.1007
     12 C         -3.851258   -0.324289   6.068606 C.ar        1 UNL1     0.1389
     13 C         -3.394991   -0.178525   4.744973 C.ar        1 UNL1     0.0229
     14 C         -5.020448   -1.571139   7.855703 C.2        1 UNL1     0.1740
     15 C         -4.350606   -0.628337   8.811728 C.3        1 UNL1     0.0520
     16 C         -4.275867   0.745779   8.160438 C.3        1 UNL1     0.1322
     17 O         -3.514966   0.691064   6.93361 O.3        1 UNL1     -0.4828
     18 C         -5.632777   1.442721   8.034775 C.ar        1 UNL1     -0.0067
     19 C         -6.006485   2.013561   6.800799 C.ar        1 UNL1     -0.0516
     20 C         -7.219416   2.699268   6.664538 C.ar        1 UNL1     -0.0198
     21 C         -8.062097   2.827101   7.754206 C.ar        1 UNL1     0.1169
     22 C         -7.737155   2.247092   8.973567 C.ar        1 UNL1     -0.0198
     23 C         -6.532797   1.545484   9.105194 C.ar        1 UNL1     -0.0516
     24 O         -9.217321   3.534257   7.593621 O.3        1 UNL1     -0.5068
     25 O         -5.772711   -2.452057   8.263832 O.2        1 UNL1     -0.2917
     26 O         -5.807637   -3.40082   5.740509 O.3        1 UNL1     -0.5058
     27 O         -0.231954   -0.198379   2.541019 O.3        1 UNL1     -0.3648
     28 O         0.26337   -1.952612   -0.573384 O.3        1 UNL1     -0.3841
     29 O         -2.45918   0.358936   -0.264657 O.3        1 UNL1     -0.3863
     30 O         -2.451446   -3.314984   -0.216102 O.3        1 UNL1     -0.3829
     31 H         0.619866   -1.849444   1.815502 H        1 UNL1     0.0937
     32 H         0.0   0.0   0.0 H        1 UNL1     0.0671
     33 H         -1.867184   -1.191932   -1.417084 H        1 UNL1     0.0649
     34 H         -3.845234   -1.832664   0.052262 H        1 UNL1     0.0683
     35 H         -3.205361   -2.941475   2.143997 H        1 UNL1     0.1085
     36 H         -4.832813   -2.963397   3.424114 H        1 UNL1     0.0691
     37 H         -2.785829   0.685021   4.486704 H        1 UNL1     0.0691
     38 H         -3.349855   -1.022227   9.01879 H        1 UNL1     0.0385
     39 H         -4.912609   -0.610984   9.751744 H        1 UNL1     0.0385
     40 H         -3.680343   1.386787   8.824501 H        1 UNL1     0.0789
     41 H         -5.358281   1.934903   5.932873 H        1 UNL1     0.0623
     42 H         -7.490855   3.145292   5.710916 H        1 UNL1     0.0654
     43 H         -8.396717   2.328229   9.829315 H        1 UNL1     0.0654
     44 H         -6.315833   1.096073   10.069456 H        1 UNL1     0.0623
     45 H         -8.987805   4.444093   7.344147 H        1 UNL1     0.2921
     46 H         -5.407445   -3.916382   6.45846 H        1 UNL1     0.2922
     47 H         0.510639   0.356267   2.263919 H        1 UNL1     0.2126
     48 H         1.198755   -1.878819   -0.302565 H        1 UNL1     0.2101
     49 H         -2.017528   0.942209   -0.902255 H        1 UNL1     0.2100
     50 H         -2.688203   -3.327915   -1.166623 H        1 UNL1     0.2102
@<TRIPOS>BOND
     1     1     2    1
     2     1     6    1
     3     2     3    1
     4     3     4    1
     5     3    29    1
     6     3    33    1
     7     4     5    1
     8     5     6    1
     9     5     7    1
    10     5    35    1
    11     7     8    1
    12     8     9   ar
    13     8    13   ar
    14     9    10   ar
    15     9    36    1
    16    10    11   ar
    17    10    26    1
    18    11    12   ar
    19    11    14    1
    20    12    13   ar
    21    12    17    1
    22    13    37    1
    23    14    15    1
    24    14    25    2
    25    15    16    1
    26    15    38    1
    27    15    39    1
    28    16    17    1
    29    16    18    1
    30    16    40    1
    31    18    19   ar
    32    18    23   ar
    33    19    20   ar
    34    19    41    1
    35    20    21   ar
    36    20    42    1
    37    21    22   ar
    38    21    24    1
    39    22    23   ar
    40    22    43    1
    41    23    44    1
    42    24    45    1
    43    26    46    1
    44    27    47    1
    45    28    48    1
    46    29    49    1
    47    30    50    1
    48     1    31    1
    49     1    27    1
    50     2    32    1
    51     2    28    1
    52     4    34    1
    53     4    30    1
