@<TRIPOS>MOLECULE
*****
 50 53 0 0 0
SMALL
GASTEIGER

@<TRIPOS>ATOM
     1 C         -0.931566   -0.845687   -1.785442 C.3        1 UNL1     0.1889
     2 C         -0.969645   0.040717   -0.511559 C.3        1 UNL1     0.1342
     3 C         -2.079108   -0.320418   0.48801 C.3        1 UNL1     0.1174
     4 C         -3.359874   -0.804665   -0.196287 C.3        1 UNL1     0.1456
     5 C         -3.083412   -1.841705   -1.300136 C.3        1 UNL1     0.2326
     6 O         -2.189296   -1.295606   -2.267193 O.3        1 UNL1     -0.3076
     7 O         -2.656702   -3.119096   -0.792681 O.3        1 UNL1     -0.4605
     8 C         -2.028047   -3.102642   0.439411 C.ar        1 UNL1     0.1310
     9 C         -2.633979   -3.409669   1.662473 C.ar        1 UNL1     0.0226
     10 C         -1.906247   -3.380954   2.858083 C.ar        1 UNL1     0.1343
     11 C         -0.547758   -3.067349   2.856652 C.ar        1 UNL1     0.1007
     12 C         0.058657   -2.719   1.646818 C.ar        1 UNL1     0.1389
     13 C         -0.673924   -2.745377   0.445127 C.ar        1 UNL1     0.0229
     14 C         0.288381   -3.103605   4.078826 C.2        1 UNL1     0.1740
     15 C         1.765624   -2.958134   3.859416 C.3        1 UNL1     0.0520
     16 C         1.991608   -1.902315   2.78604 C.3        1 UNL1     0.1322
     17 O         1.36157   -2.289669   1.54504 O.3        1 UNL1     -0.4828
     18 C         1.667678   -0.478377   3.244508 C.ar        1 UNL1     -0.0067
     19 C         2.169   -0.017453   4.47919 C.ar        1 UNL1     -0.0516
     20 C         1.852676   1.262423   4.950168 C.ar        1 UNL1     -0.0198
     21 C         1.031895   2.086343   4.200968 C.ar        1 UNL1     0.1169
     22 C         0.550047   1.673337   2.965619 C.ar        1 UNL1     -0.0198
     23 C         0.881253   0.400472   2.485855 C.ar        1 UNL1     -0.0516
     24 O         0.7148   3.31164   4.709396 O.3        1 UNL1     -0.5068
     25 O         -0.163076   -3.31787   5.200772 O.2        1 UNL1     -0.2917
     26 O         -2.556643   -3.689666   4.017077 O.3        1 UNL1     -0.5058
     27 O         0.009444   -1.904697   -1.709378 O.3        1 UNL1     -0.3648
     28 O         -1.182546   1.406899   -0.912714 O.3        1 UNL1     -0.3841
     29 O         -1.59641   -1.237731   1.471713 O.3        1 UNL1     -0.3863
     30 O         -4.040716   0.32629   -0.782021 O.3        1 UNL1     -0.3829
     31 H         -0.558581   -0.211303   -2.596934 H        1 UNL1     0.0937
     32 H         0.0   0.0   0.0 H        1 UNL1     0.0671
     33 H         -2.340491   0.591508   1.042798 H        1 UNL1     0.0649
     34 H         -4.039201   -1.238653   0.545716 H        1 UNL1     0.0683
     35 H         -4.054069   -1.964595   -1.796726 H        1 UNL1     0.1085
     36 H         -3.672682   -3.71546   1.723368 H        1 UNL1     0.0691
     37 H         -0.17884   -2.468867   -0.483273 H        1 UNL1     0.0691
     38 H         2.15085   -3.932956   3.541849 H        1 UNL1     0.0385
     39 H         2.245039   -2.693415   4.808027 H        1 UNL1     0.0385
     40 H         3.066169   -1.896934   2.558425 H        1 UNL1     0.0789
     41 H         2.807815   -0.648468   5.090243 H        1 UNL1     0.0623
     42 H         2.235751   1.601859   5.90936 H        1 UNL1     0.0654
     43 H         -0.0812   2.316205   2.363822 H        1 UNL1     0.0654
     44 H         0.49591   0.114593   1.511879 H        1 UNL1     0.0623
     45 H         1.409954   3.939226   4.453245 H        1 UNL1     0.2921
     46 H         -3.06755   -4.505282   3.893973 H        1 UNL1     0.2922
     47 H         -0.105086   -2.508658   -2.456355 H        1 UNL1     0.2126
     48 H         -0.393044   1.907584   -0.630342 H        1 UNL1     0.2101
     49 H         -2.341908   -1.613591   1.966443 H        1 UNL1     0.2100
     50 H         -3.36408   0.989092   -1.032162 H        1 UNL1     0.2102
@<TRIPOS>BOND
     1     1     2    1
     2     1     6    1
     3     2     3    1
     4     3     4    1
     5     3    29    1
     6     3    33    1
     7     4     5    1
     8     5     6    1
     9     5     7    1
    10     5    35    1
    11     7     8    1
    12     8     9   ar
    13     8    13   ar
    14     9    10   ar
    15     9    36    1
    16    10    11   ar
    17    10    26    1
    18    11    12   ar
    19    11    14    1
    20    12    13   ar
    21    12    17    1
    22    13    37    1
    23    14    15    1
    24    14    25    2
    25    15    16    1
    26    15    38    1
    27    15    39    1
    28    16    17    1
    29    16    18    1
    30    16    40    1
    31    18    19   ar
    32    18    23   ar
    33    19    20   ar
    34    19    41    1
    35    20    21   ar
    36    20    42    1
    37    21    22   ar
    38    21    24    1
    39    22    23   ar
    40    22    43    1
    41    23    44    1
    42    24    45    1
    43    26    46    1
    44    27    47    1
    45    28    48    1
    46    29    49    1
    47    30    50    1
    48     1    31    1
    49     1    27    1
    50     2    32    1
    51     2    28    1
    52     4    34    1
    53     4    30    1
