@<TRIPOS>MOLECULE
*****
 50 53 0 0 0
SMALL
GASTEIGER

@<TRIPOS>ATOM
     1 C         -1.432479   -0.429407   1.591986 C.3        1 UNL1     0.1889
     2 C         -0.668758   0.55692   0.667956 C.3        1 UNL1     0.1342
     3 C         0.142963   1.631057   1.408094 C.3        1 UNL1     0.1174
     4 C         -0.528219   2.094667   2.703353 C.3        1 UNL1     0.1456
     5 C         -1.030684   0.919128   3.561258 C.3        1 UNL1     0.2326
     6 O         -1.932769   0.115521   2.804074 O.3        1 UNL1     -0.3076
     7 O         0.029397   0.15953   4.169994 O.3        1 UNL1     -0.4605
     8 C         -0.336849   -0.651389   5.229146 C.ar        1 UNL1     0.1310
     9 C         0.527966   -1.48017   5.951999 C.ar        1 UNL1     0.0226
     10 C         0.063095   -2.25316   7.022645 C.ar        1 UNL1     0.1343
     11 C         -1.274539   -2.197942   7.41191 C.ar        1 UNL1     0.1007
     12 C         -2.156007   -1.405366   6.671896 C.ar        1 UNL1     0.1389
     13 C         -1.688861   -0.63025   5.593749 C.ar        1 UNL1     0.0229
     14 C         -1.802004   -2.928831   8.587383 C.2        1 UNL1     0.1740
     15 C         -3.204423   -2.581308   8.992347 C.3        1 UNL1     0.0520
     16 C         -4.042426   -2.414417   7.732245 C.3        1 UNL1     0.1322
     17 O         -3.511874   -1.359822   6.899529 O.3        1 UNL1     -0.4828
     18 C         -4.315448   -3.727891   6.995383 C.ar        1 UNL1     -0.0067
     19 C         -5.305696   -3.76635   5.992315 C.ar        1 UNL1     -0.0516
     20 C         -5.613324   -4.961941   5.332095 C.ar        1 UNL1     -0.0198
     21 C         -4.944486   -6.124769   5.670198 C.ar        1 UNL1     0.1169
     22 C         -3.941021   -6.111847   6.630265 C.ar        1 UNL1     -0.0198
     23 C         -3.620367   -4.912622   7.277642 C.ar        1 UNL1     -0.0516
     24 O         -5.297415   -7.277632   5.03243 O.3        1 UNL1     -0.5068
     25 O         -1.130645   -3.712625   9.253288 O.2        1 UNL1     -0.2917
     26 O         0.957707   -3.041453   7.685856 O.3        1 UNL1     -0.5058
     27 O         -0.741056   -1.64857   1.811901 O.3        1 UNL1     -0.3648
     28 O         -1.627103   1.239884   -0.161405 O.3        1 UNL1     -0.3841
     29 O         1.491105   1.200691   1.606671 O.3        1 UNL1     -0.3863
     30 O         -1.649739   2.944359   2.377922 O.3        1 UNL1     -0.3829
     31 H         -2.338025   -0.726608   1.051859 H        1 UNL1     0.0937
     32 H         0.0   0.0   0.0 H        1 UNL1     0.0671
     33 H         0.211014   2.510735   0.752919 H        1 UNL1     0.0649
     34 H         0.171414   2.69864   3.291682 H        1 UNL1     0.0683
     35 H         -1.619487   1.401215   4.351688 H        1 UNL1     0.1085
     36 H         1.589492   -1.52473   5.734521 H        1 UNL1     0.0691
     37 H         -2.395587   -0.02235   5.032955 H        1 UNL1     0.0691
     38 H         -3.162293   -1.648691   9.56504 H        1 UNL1     0.0385
     39 H         -3.594135   -3.367771   9.647617 H        1 UNL1     0.0385
     40 H         -5.028812   -2.046675   8.045819 H        1 UNL1     0.0789
     41 H         -5.85131   -2.869074   5.715092 H        1 UNL1     0.0623
     42 H         -6.387242   -4.981149   4.568751 H        1 UNL1     0.0654
     43 H         -3.400536   -7.013639   6.892102 H        1 UNL1     0.0654
     44 H         -2.823742   -4.936994   8.014961 H        1 UNL1     0.0623
     45 H         -5.596204   -7.053256   4.136273 H        1 UNL1     0.2921
     46 H         1.440283   -2.506779   8.335976 H        1 UNL1     0.2922
     47 H         -0.165854   -1.572346   2.585975 H        1 UNL1     0.2126
     48 H         -1.813034   0.650404   -0.917497 H        1 UNL1     0.2101
     49 H         1.551443   0.23935   1.488455 H        1 UNL1     0.2100
     50 H         -2.27159   2.42508   1.827138 H        1 UNL1     0.2102
@<TRIPOS>BOND
     1     1     2    1
     2     1     6    1
     3     2     3    1
     4     3     4    1
     5     3    29    1
     6     3    33    1
     7     4     5    1
     8     5     6    1
     9     5     7    1
    10     5    35    1
    11     7     8    1
    12     8     9   ar
    13     8    13   ar
    14     9    10   ar
    15     9    36    1
    16    10    11   ar
    17    10    26    1
    18    11    12   ar
    19    11    14    1
    20    12    13   ar
    21    12    17    1
    22    13    37    1
    23    14    15    1
    24    14    25    2
    25    15    16    1
    26    15    38    1
    27    15    39    1
    28    16    17    1
    29    16    18    1
    30    16    40    1
    31    18    19   ar
    32    18    23   ar
    33    19    20   ar
    34    19    41    1
    35    20    21   ar
    36    20    42    1
    37    21    22   ar
    38    21    24    1
    39    22    23   ar
    40    22    43    1
    41    23    44    1
    42    24    45    1
    43    26    46    1
    44    27    47    1
    45    28    48    1
    46    29    49    1
    47    30    50    1
    48     1    31    1
    49     1    27    1
    50     2    32    1
    51     2    28    1
    52     4    34    1
    53     4    30    1
