@<TRIPOS>MOLECULE
*****
 50 53 0 0 0
SMALL
GASTEIGER

@<TRIPOS>ATOM
     1 C         0.920508   0.03996   1.980372 C.3        1 UNL1     0.1889
     2 C         -0.321164   0.021867   1.048779 C.3        1 UNL1     0.1342
     3 C         -1.291873   1.19541   1.251228 C.3        1 UNL1     0.1174
     4 C         -1.386032   1.642492   2.712176 C.3        1 UNL1     0.1456
     5 C         -0.004082   1.788823   3.374871 C.3        1 UNL1     0.2326
     6 O         0.710535   0.558285   3.28561 O.3        1 UNL1     -0.3076
     7 O         0.747684   2.916218   2.88995 O.3        1 UNL1     -0.4605
     8 C         1.601038   3.512789   3.800674 C.ar        1 UNL1     0.1310
     9 C         1.827532   4.888357   3.918213 C.ar        1 UNL1     0.0226
     10 C         2.700555   5.397933   4.88675 C.ar        1 UNL1     0.1343
     11 C         3.350668   4.545078   5.777723 C.ar        1 UNL1     0.1007
     12 C         3.164152   3.166675   5.643558 C.ar        1 UNL1     0.1389
     13 C         2.288322   2.654376   4.667903 C.ar        1 UNL1     0.0229
     14 C         4.21828   5.035016   6.873791 C.2        1 UNL1     0.1740
     15 C         4.654261   3.999933   7.868814 C.3        1 UNL1     0.0520
     16 C         4.989416   2.719455   7.116481 C.3        1 UNL1     0.1322
     17 O         3.836424   2.231465   6.395688 O.3        1 UNL1     -0.4828
     18 C         6.267698   2.812974   6.279837 C.ar        1 UNL1     -0.0067
     19 C         6.250898   2.378196   4.938606 C.ar        1 UNL1     -0.0516
     20 C         7.414023   2.40578   4.159927 C.ar        1 UNL1     -0.0198
     21 C         8.599246   2.857987   4.711818 C.ar        1 UNL1     0.1169
     22 C         8.640001   3.324004   6.01949 C.ar        1 UNL1     -0.0198
     23 C         7.472911   3.313803   6.7927 C.ar        1 UNL1     -0.0516
     24 O         9.71994   2.834788   3.934703 O.3        1 UNL1     -0.5068
     25 O         4.510427   6.21803   7.027456 O.2        1 UNL1     -0.2917
     26 O         2.878535   6.749277   4.948218 O.3        1 UNL1     -0.5058
     27 O         2.074279   0.600008   1.373787 O.3        1 UNL1     -0.3648
     28 O         -1.057765   -1.190557   1.294038 O.3        1 UNL1     -0.3841
     29 O         -0.980326   2.27024   0.362515 O.3        1 UNL1     -0.3863
     30 O         -2.156859   0.673413   3.455413 O.3        1 UNL1     -0.3829
     31 H         1.191508   -1.006029   2.160773 H        1 UNL1     0.0937
     32 H         0.0   0.0   -0.0 H        1 UNL1     0.0671
     33 H         -2.294848   0.855461   0.957637 H        1 UNL1     0.0649
     34 H         -1.921335   2.596202   2.777665 H        1 UNL1     0.0683
     35 H         -0.234905   1.947382   4.435748 H        1 UNL1     0.1085
     36 H         1.309801   5.607017   3.292432 H        1 UNL1     0.0691
     37 H         2.16129   1.577256   4.58324 H        1 UNL1     0.0691
     38 H         3.825545   3.842232   8.567303 H        1 UNL1     0.0385
     39 H         5.510047   4.383862   8.434507 H        1 UNL1     0.0385
     40 H         5.190686   1.945088   7.869054 H        1 UNL1     0.0789
     41 H         5.335248   2.010207   4.484932 H        1 UNL1     0.0623
     42 H         7.390893   2.056687   3.130553 H        1 UNL1     0.0654
     43 H         9.559461   3.694336   6.456933 H        1 UNL1     0.0654
     44 H         7.538851   3.695095   7.807152 H        1 UNL1     0.0623
     45 H         9.896024   1.915162   3.677798 H        1 UNL1     0.2921
     46 H         2.663027   7.063718   5.840459 H        1 UNL1     0.2922
     47 H         2.279379   0.134437   0.550964 H        1 UNL1     0.2126
     48 H         -0.466145   -1.930233   1.056138 H        1 UNL1     0.2101
     49 H         -1.188019   2.014454   -0.5503 H        1 UNL1     0.2100
     50 H         -3.075988   0.695757   3.117159 H        1 UNL1     0.2102
@<TRIPOS>BOND
     1     1     2    1
     2     1     6    1
     3     2     3    1
     4     3     4    1
     5     3    29    1
     6     3    33    1
     7     4     5    1
     8     5     6    1
     9     5     7    1
    10     5    35    1
    11     7     8    1
    12     8     9   ar
    13     8    13   ar
    14     9    10   ar
    15     9    36    1
    16    10    11   ar
    17    10    26    1
    18    11    12   ar
    19    11    14    1
    20    12    13   ar
    21    12    17    1
    22    13    37    1
    23    14    15    1
    24    14    25    2
    25    15    16    1
    26    15    38    1
    27    15    39    1
    28    16    17    1
    29    16    18    1
    30    16    40    1
    31    18    19   ar
    32    18    23   ar
    33    19    20   ar
    34    19    41    1
    35    20    21   ar
    36    20    42    1
    37    21    22   ar
    38    21    24    1
    39    22    23   ar
    40    22    43    1
    41    23    44    1
    42    24    45    1
    43    26    46    1
    44    27    47    1
    45    28    48    1
    46    29    49    1
    47    30    50    1
    48     1    31    1
    49     1    27    1
    50     2    32    1
    51     2    28    1
    52     4    34    1
    53     4    30    1
