@<TRIPOS>MOLECULE
*****
 50 53 0 0 0
SMALL
GASTEIGER

@<TRIPOS>ATOM
     1 C         -0.022887   -1.193197   1.829361 C.3        1 UNL1     0.1889
     2 C         -0.289146   -1.011617   0.310784 C.3        1 UNL1     0.1342
     3 C         -1.740028   -1.273193   -0.121631 C.3        1 UNL1     0.1174
     4 C         -2.408487   -2.387924   0.686858 C.3        1 UNL1     0.1456
     5 C         -2.172429   -2.241633   2.201202 C.3        1 UNL1     0.2326
     6 O         -0.773381   -2.211577   2.474386 O.3        1 UNL1     -0.3076
     7 O         -2.88755   -1.139624   2.788993 O.3        1 UNL1     -0.4605
     8 C         -3.297241   -1.312448   4.098883 C.ar        1 UNL1     0.1310
     9 C         -3.908658   -2.461527   4.611803 C.ar        1 UNL1     0.0226
     10 C         -4.272517   -2.546859   5.960961 C.ar        1 UNL1     0.1343
     11 C         -4.011895   -1.493237   6.83606 C.ar        1 UNL1     0.1007
     12 C         -3.43911   -0.324748   6.326812 C.ar        1 UNL1     0.1389
     13 C         -3.075751   -0.238185   4.969643 C.ar        1 UNL1     0.0229
     14 C         -4.29879   -1.562272   8.287638 C.2        1 UNL1     0.1740
     15 C         -3.752363   -0.433724   9.111862 C.3        1 UNL1     0.0520
     16 C         -3.938947   0.863316   8.336729 C.3        1 UNL1     0.1322
     17 O         -3.237539   0.811979   7.074801 O.3        1 UNL1     -0.4828
     18 C         -5.397685   1.315208   8.233768 C.ar        1 UNL1     -0.0067
     19 C         -5.747892   2.319475   7.308016 C.ar        1 UNL1     -0.0516
     20 C         -7.06386   2.789241   7.221359 C.ar        1 UNL1     -0.0198
     21 C         -8.035076   2.269217   8.058104 C.ar        1 UNL1     0.1169
     22 C         -7.728016   1.255864   8.956807 C.ar        1 UNL1     -0.0198
     23 C         -6.416011   0.772939   9.030856 C.ar        1 UNL1     -0.0516
     24 O         -9.297597   2.778036   7.971239 O.3        1 UNL1     -0.5068
     25 O         -4.873261   -2.5089   8.819017 O.2        1 UNL1     -0.2917
     26 O         -4.866349   -3.694918   6.397893 O.3        1 UNL1     -0.5058
     27 O         -0.055967   0.023336   2.558565 O.3        1 UNL1     -0.3648
     28 O         0.546376   -1.934497   -0.412336 O.3        1 UNL1     -0.3841
     29 O         -2.495594   -0.060241   -0.121769 O.3        1 UNL1     -0.3863
     30 O         -1.885899   -3.663719   0.256814 O.3        1 UNL1     -0.3829
     31 H         1.012478   -1.537693   1.926425 H        1 UNL1     0.0937
     32 H         0.0   0.0   0.0 H        1 UNL1     0.0671
     33 H         -1.722985   -1.606438   -1.168712 H        1 UNL1     0.0649
     34 H         -3.485899   -2.399448   0.488232 H        1 UNL1     0.0683
     35 H         -2.559311   -3.178652   2.62096 H        1 UNL1     0.1085
     36 H         -4.0873   -3.335822   3.99551 H        1 UNL1     0.0691
     37 H         -2.632328   0.682964   4.597685 H        1 UNL1     0.0691
     38 H         -2.691284   -0.637787   9.29074 H        1 UNL1     0.0385
     39 H         -4.26499   -0.415106   10.079667 H        1 UNL1     0.0385
     40 H         -3.428807   1.654714   8.902385 H        1 UNL1     0.0789
     41 H         -5.001969   2.750294   6.646469 H        1 UNL1     0.0623
     42 H         -7.318907   3.572367   6.511658 H        1 UNL1     0.0654
     43 H         -8.484047   0.830976   9.606267 H        1 UNL1     0.0654
     44 H         -6.213956   -0.026665   9.737009 H        1 UNL1     0.0623
     45 H         -9.273658   3.707384   8.25134 H        1 UNL1     0.2921
     46 H         -4.477977   -3.956913   7.247562 H        1 UNL1     0.2922
     47 H         0.557692   0.66286   2.170891 H        1 UNL1     0.2126
     48 H         1.459418   -1.593789   -0.349045 H        1 UNL1     0.2101
     49 H         -2.33398   0.429139   -0.944072 H        1 UNL1     0.2100
     50 H         -2.188342   -3.819225   -0.661913 H        1 UNL1     0.2102
@<TRIPOS>BOND
     1     1     2    1
     2     1     6    1
     3     2     3    1
     4     3     4    1
     5     3    29    1
     6     3    33    1
     7     4     5    1
     8     5     6    1
     9     5     7    1
    10     5    35    1
    11     7     8    1
    12     8     9   ar
    13     8    13   ar
    14     9    10   ar
    15     9    36    1
    16    10    11   ar
    17    10    26    1
    18    11    12   ar
    19    11    14    1
    20    12    13   ar
    21    12    17    1
    22    13    37    1
    23    14    15    1
    24    14    25    2
    25    15    16    1
    26    15    38    1
    27    15    39    1
    28    16    17    1
    29    16    18    1
    30    16    40    1
    31    18    19   ar
    32    18    23   ar
    33    19    20   ar
    34    19    41    1
    35    20    21   ar
    36    20    42    1
    37    21    22   ar
    38    21    24    1
    39    22    23   ar
    40    22    43    1
    41    23    44    1
    42    24    45    1
    43    26    46    1
    44    27    47    1
    45    28    48    1
    46    29    49    1
    47    30    50    1
    48     1    31    1
    49     1    27    1
    50     2    32    1
    51     2    28    1
    52     4    34    1
    53     4    30    1
