@<TRIPOS>MOLECULE
*****
 50 53 0 0 0
SMALL
GASTEIGER

@<TRIPOS>ATOM
     1 C         -0.388   -2.12677   0.311628 C.3        1 UNL1     0.1889
     2 C         -0.707214   -0.760716   -0.353159 C.3        1 UNL1     0.1342
     3 C         -2.140547   -0.25635   -0.125925 C.3        1 UNL1     0.1174
     4 C         -3.168069   -1.389952   -0.078359 C.3        1 UNL1     0.1456
     5 C         -2.715575   -2.559613   0.814674 C.3        1 UNL1     0.2326
     6 O         -1.458602   -3.058219   0.362702 O.3        1 UNL1     -0.3076
     7 O         -2.728148   -2.246516   2.219356 O.3        1 UNL1     -0.4605
     8 C         -3.013848   -3.297518   3.072174 C.ar        1 UNL1     0.1310
     9 C         -4.210069   -4.022751   3.092071 C.ar        1 UNL1     0.0226
     10 C         -4.397879   -5.084626   3.984847 C.ar        1 UNL1     0.1343
     11 C         -3.383978   -5.462667   4.864013 C.ar        1 UNL1     0.1007
     12 C         -2.200432   -4.71991   4.881731 C.ar        1 UNL1     0.1389
     13 C         -2.01284   -3.650567   3.985771 C.ar        1 UNL1     0.0229
     14 C         -3.497114   -6.62908   5.770013 C.2        1 UNL1     0.1740
     15 C         -2.235892   -7.024037   6.480559 C.3        1 UNL1     0.0520
     16 C         -1.513358   -5.757792   6.919335 C.3        1 UNL1     0.1322
     17 O         -1.180202   -4.936113   5.778757 O.3        1 UNL1     -0.4828
     18 C         -2.214796   -5.010627   8.056197 C.ar        1 UNL1     -0.0067
     19 C         -1.559002   -3.931868   8.684229 C.ar        1 UNL1     -0.0516
     20 C         -2.152261   -3.257509   9.758122 C.ar        1 UNL1     -0.0198
     21 C         -3.394965   -3.656118   10.21706 C.ar        1 UNL1     0.1169
     22 C         -4.080222   -4.693252   9.597693 C.ar        1 UNL1     -0.0198
     23 C         -3.495236   -5.355825   8.511947 C.ar        1 UNL1     -0.0516
     24 O         -3.924677   -3.000218   11.289254 O.3        1 UNL1     -0.5068
     25 O         -4.521616   -7.295971   5.888911 O.2        1 UNL1     -0.2917
     26 O         -5.588241   -5.750722   3.954216 O.3        1 UNL1     -0.5058
     27 O         0.261876   -2.006451   1.567006 O.3        1 UNL1     -0.3648
     28 O         -0.518924   -0.890127   -1.774604 O.3        1 UNL1     -0.3841
     29 O         -2.202691   0.595376   1.019865 O.3        1 UNL1     -0.3863
     30 O         -3.388393   -1.886089   -1.416639 O.3        1 UNL1     -0.3829
     31 H         0.351085   -2.621002   -0.328345 H        1 UNL1     0.0937
     32 H         0.0   0.0   0.0 H        1 UNL1     0.0671
     33 H         -2.410655   0.381827   -0.978856 H        1 UNL1     0.0649
     34 H         -4.129027   -1.008693   0.284411 H        1 UNL1     0.0683
     35 H         -3.458233   -3.343538   0.620252 H        1 UNL1     0.1085
     36 H         -5.014996   -3.81417   2.395863 H        1 UNL1     0.0691
     37 H         -1.08271   -3.087405   4.020404 H        1 UNL1     0.0691
     38 H         -1.627115   -7.602734   5.777689 H        1 UNL1     0.0385
     39 H         -2.488606   -7.671127   7.32743 H        1 UNL1     0.0385
     40 H         -0.541828   -6.065077   7.329488 H        1 UNL1     0.0789
     41 H         -0.578911   -3.605648   8.348589 H        1 UNL1     0.0623
     42 H         -1.631295   -2.434867   10.241719 H        1 UNL1     0.0654
     43 H         -5.060403   -5.003756   9.939371 H        1 UNL1     0.0654
     44 H         -4.063514   -6.154647   8.045269 H        1 UNL1     0.0623
     45 H         -3.203503   -2.55614   11.764037 H        1 UNL1     0.2921
     46 H         -5.830743   -5.93769   3.033538 H        1 UNL1     0.2922
     47 H         -0.391547   -1.93981   2.277258 H        1 UNL1     0.2126
     48 H         -1.263397   -0.421864   -2.19913 H        1 UNL1     0.2101
     49 H         -2.514186   0.091908   1.788816 H        1 UNL1     0.2100
     50 H         -3.009838   -2.788069   -1.469941 H        1 UNL1     0.2102
@<TRIPOS>BOND
     1     1     2    1
     2     1     6    1
     3     2     3    1
     4     3     4    1
     5     3    29    1
     6     3    33    1
     7     4     5    1
     8     5     6    1
     9     5     7    1
    10     5    35    1
    11     7     8    1
    12     8     9   ar
    13     8    13   ar
    14     9    10   ar
    15     9    36    1
    16    10    11   ar
    17    10    26    1
    18    11    12   ar
    19    11    14    1
    20    12    13   ar
    21    12    17    1
    22    13    37    1
    23    14    15    1
    24    14    25    2
    25    15    16    1
    26    15    38    1
    27    15    39    1
    28    16    17    1
    29    16    18    1
    30    16    40    1
    31    18    19   ar
    32    18    23   ar
    33    19    20   ar
    34    19    41    1
    35    20    21   ar
    36    20    42    1
    37    21    22   ar
    38    21    24    1
    39    22    23   ar
    40    22    43    1
    41    23    44    1
    42    24    45    1
    43    26    46    1
    44    27    47    1
    45    28    48    1
    46    29    49    1
    47    30    50    1
    48     1    31    1
    49     1    27    1
    50     2    32    1
    51     2    28    1
    52     4    34    1
    53     4    30    1
