@<TRIPOS>MOLECULE
*****
 50 53 0 0 0
SMALL
GASTEIGER

@<TRIPOS>ATOM
     1 C         -0.69817   -1.819617   0.986081 C.3        1 UNL1     0.1889
     2 C         -0.003577   -1.08062   -0.189233 C.3        1 UNL1     0.1342
     3 C         -0.624092   -1.345584   -1.569531 C.3        1 UNL1     0.1174
     4 C         -1.156981   -2.773003   -1.71657 C.3        1 UNL1     0.1456
     5 C         -1.995062   -3.217955   -0.504134 C.3        1 UNL1     0.2326
     6 O         -1.222113   -3.105472   0.688663 O.3        1 UNL1     -0.3076
     7 O         -3.270957   -2.557925   -0.415964 O.3        1 UNL1     -0.4605
     8 C         -4.297259   -3.295175   0.146793 C.ar        1 UNL1     0.1310
     9 C         -4.601022   -4.626164   -0.158976 C.ar        1 UNL1     0.0226
     10 C         -5.65308   -5.293492   0.479578 C.ar        1 UNL1     0.1343
     11 C         -6.412544   -4.652733   1.457577 C.ar        1 UNL1     0.1007
     12 C         -6.145024   -3.310984   1.742054 C.ar        1 UNL1     0.1389
     13 C         -5.088829   -2.639407   1.097953 C.ar        1 UNL1     0.0229
     14 C         -7.48098   -5.33558   2.223292 C.2        1 UNL1     0.1740
     15 C         -8.04032   -4.566951   3.384282 C.3        1 UNL1     0.0520
     16 C         -8.180677   -3.107728   2.973275 C.3        1 UNL1     0.1322
     17 O         -6.898108   -2.552289   2.607798 O.3        1 UNL1     -0.4828
     18 C         -9.293655   -2.859466   1.95231 C.ar        1 UNL1     -0.0067
     19 C         -9.020079   -2.089722   0.803022 C.ar        1 UNL1     -0.0516
     20 C         -10.027103   -1.804012   -0.126621 C.ar        1 UNL1     -0.0198
     21 C         -11.310563   -2.274996   0.084878 C.ar        1 UNL1     0.1169
     22 C         -11.60317   -3.063684   1.189953 C.ar        1 UNL1     -0.0198
     23 C         -10.59207   -3.365006   2.110245 C.ar        1 UNL1     -0.0516
     24 O         -12.27384   -1.944832   -0.822585 O.3        1 UNL1     -0.5068
     25 O         -7.84725   -6.485408   1.994758 O.2        1 UNL1     -0.2917
     26 O         -5.898161   -6.590729   0.135057 O.3        1 UNL1     -0.5058
     27 O         -1.640613   -1.017738   1.680039 O.3        1 UNL1     -0.3648
     28 O         1.370179   -1.507279   -0.248086 O.3        1 UNL1     -0.3841
     29 O         -1.603889   -0.353937   -1.883803 O.3        1 UNL1     -0.3863
     30 O         -0.044171   -3.680676   -1.869781 O.3        1 UNL1     -0.3829
     31 H         0.079706   -2.025734   1.729386 H        1 UNL1     0.0937
     32 H         0.0   0.0   0.0 H        1 UNL1     0.0671
     33 H         0.16724   -1.222678   -2.322132 H        1 UNL1     0.0649
     34 H         -1.764002   -2.853851   -2.62508 H        1 UNL1     0.0683
     35 H         -2.161754   -4.288664   -0.6764 H        1 UNL1     0.1085
     36 H         -4.012753   -5.196584   -0.869386 H        1 UNL1     0.0691
     37 H         -4.901754   -1.594594   1.336413 H        1 UNL1     0.0691
     38 H         -7.342128   -4.676196   4.221014 H        1 UNL1     0.0385
     39 H         -8.998662   -5.008225   3.678619 H        1 UNL1     0.0385
     40 H         -8.477772   -2.546184   3.869334 H        1 UNL1     0.0789
     41 H         -8.022858   -1.700764   0.618869 H        1 UNL1     0.0623
     42 H         -9.806375   -1.199391   -1.00282 H        1 UNL1     0.0654
     43 H         -12.601372   -3.45026   1.357468 H        1 UNL1     0.0654
     44 H         -10.85371   -3.992678   2.95666 H        1 UNL1     0.0623
     45 H         -12.355843   -0.977616   -0.844607 H        1 UNL1     0.2921
     46 H         -5.856497   -7.149279   0.927331 H        1 UNL1     0.2922
     47 H         -1.220085   -0.206885   1.998684 H        1 UNL1     0.2126
     48 H         1.779526   -1.250075   0.60045 H        1 UNL1     0.2101
     49 H         -1.170849   0.500912   -2.037112 H        1 UNL1     0.2100
     50 H         0.398331   -3.474525   -2.719137 H        1 UNL1     0.2102
@<TRIPOS>BOND
     1     1     2    1
     2     1     6    1
     3     2     3    1
     4     3     4    1
     5     3    29    1
     6     3    33    1
     7     4     5    1
     8     5     6    1
     9     5     7    1
    10     5    35    1
    11     7     8    1
    12     8     9   ar
    13     8    13   ar
    14     9    10   ar
    15     9    36    1
    16    10    11   ar
    17    10    26    1
    18    11    12   ar
    19    11    14    1
    20    12    13   ar
    21    12    17    1
    22    13    37    1
    23    14    15    1
    24    14    25    2
    25    15    16    1
    26    15    38    1
    27    15    39    1
    28    16    17    1
    29    16    18    1
    30    16    40    1
    31    18    19   ar
    32    18    23   ar
    33    19    20   ar
    34    19    41    1
    35    20    21   ar
    36    20    42    1
    37    21    22   ar
    38    21    24    1
    39    22    23   ar
    40    22    43    1
    41    23    44    1
    42    24    45    1
    43    26    46    1
    44    27    47    1
    45    28    48    1
    46    29    49    1
    47    30    50    1
    48     1    31    1
    49     1    27    1
    50     2    32    1
    51     2    28    1
    52     4    34    1
    53     4    30    1
