@<TRIPOS>MOLECULE
*****
 50 53 0 0 0
SMALL
GASTEIGER

@<TRIPOS>ATOM
     1 C         1.666149   0.022569   1.412176 C.3        1 UNL1     0.1889
     2 C         0.152623   0.116903   1.080093 C.3        1 UNL1     0.1342
     3 C         -0.526108   1.414631   1.54452 C.3        1 UNL1     0.1174
     4 C         0.04516   1.944529   2.862085 C.3        1 UNL1     0.1456
     5 C         1.584655   1.945302   2.879988 C.3        1 UNL1     0.2326
     6 O         2.074332   0.629958   2.629082 O.3        1 UNL1     -0.3076
     7 O         2.167428   2.939976   2.018407 O.3        1 UNL1     -0.4605
     8 C         2.639432   2.485354   0.800187 C.ar        1 UNL1     0.1310
     9 C         2.287634   1.273563   0.19595 C.ar        1 UNL1     0.0226
     10 C         2.80799   0.908961   -1.051526 C.ar        1 UNL1     0.1343
     11 C         3.675134   1.759006   -1.7366 C.ar        1 UNL1     0.1007
     12 C         4.065847   2.953125   -1.124877 C.ar        1 UNL1     0.1389
     13 C         3.544555   3.318292   0.130646 C.ar        1 UNL1     0.0229
     14 C         4.188718   1.462055   -3.093879 C.2        1 UNL1     0.1740
     15 C         4.925188   2.581741   -3.76876 C.3        1 UNL1     0.0520
     16 C         5.800221   3.27558   -2.733936 C.3        1 UNL1     0.1322
     17 O         4.996684   3.812862   -1.660285 O.3        1 UNL1     -0.4828
     18 C         6.994051   2.435557   -2.273658 C.ar        1 UNL1     -0.0067
     19 C         6.828315   1.050343   -2.068898 C.ar        1 UNL1     -0.0516
     20 C         7.886774   0.261404   -1.602847 C.ar        1 UNL1     -0.0198
     21 C         9.111009   0.84572   -1.331464 C.ar        1 UNL1     0.1169
     22 C         9.314693   2.20122   -1.555007 C.ar        1 UNL1     -0.0198
     23 C         8.261738   2.98702   -2.038599 C.ar        1 UNL1     -0.0516
     24 O         10.107348   0.052597   -0.842929 O.3        1 UNL1     -0.5068
     25 O         3.971112   0.406667   -3.683192 O.2        1 UNL1     -0.2917
     26 O         2.42581   -0.286941   -1.585699 O.3        1 UNL1     -0.5058
     27 O         2.506341   0.397311   0.332161 O.3        1 UNL1     -0.3648
     28 O         -0.525238   -0.976235   1.726823 O.3        1 UNL1     -0.3841
     29 O         -0.51522   2.393272   0.503234 O.3        1 UNL1     -0.3863
     30 O         -0.431194   1.122359   3.949657 O.3        1 UNL1     -0.3829
     31 H         1.886355   -1.038977   1.569368 H        1 UNL1     0.0937
     32 H         0.0   0.0   0.0 H        1 UNL1     0.0671
     33 H         -1.587121   1.192203   1.724792 H        1 UNL1     0.0649
     34 H         -0.319165   2.961386   3.045577 H        1 UNL1     0.0683
     35 H         1.836975   2.18655   3.920186 H        1 UNL1     0.1085
     36 H         1.574934   0.594932   0.651625 H        1 UNL1     0.0691
     37 H         3.865436   4.252731   0.586005 H        1 UNL1     0.0691
     38 H         4.178175   3.269467   -4.179286 H        1 UNL1     0.0385
     39 H         5.510583   2.176112   -4.60096 H        1 UNL1     0.0385
     40 H         6.236474   4.159239   -3.219064 H        1 UNL1     0.0789
     41 H         5.87457   0.56947   -2.265829 H        1 UNL1     0.0623
     42 H         7.743034   -0.803513   -1.437612 H        1 UNL1     0.0654
     43 H         10.273698   2.666229   -1.360108 H        1 UNL1     0.0654
     44 H         8.459313   4.040498   -2.211782 H        1 UNL1     0.0623
     45 H         10.740856   -0.119634   -1.558276 H        1 UNL1     0.2921
     46 H         2.58077   -0.994108   -0.9397 H        1 UNL1     0.2922
     47 H         3.398685   0.048283   0.465432 H        1 UNL1     0.2126
     48 H         -1.100964   -1.386278   1.052925 H        1 UNL1     0.2101
     49 H         -1.023634   3.172964   0.777804 H        1 UNL1     0.2100
     50 H         -1.26955   0.702653   3.665546 H        1 UNL1     0.2102
@<TRIPOS>BOND
     1     1     2    1
     2     1     6    1
     3     2     3    1
     4     3     4    1
     5     3    29    1
     6     3    33    1
     7     4     5    1
     8     5     6    1
     9     5     7    1
    10     5    35    1
    11     7     8    1
    12     8     9   ar
    13     8    13   ar
    14     9    10   ar
    15     9    36    1
    16    10    11   ar
    17    10    26    1
    18    11    12   ar
    19    11    14    1
    20    12    13   ar
    21    12    17    1
    22    13    37    1
    23    14    15    1
    24    14    25    2
    25    15    16    1
    26    15    38    1
    27    15    39    1
    28    16    17    1
    29    16    18    1
    30    16    40    1
    31    18    19   ar
    32    18    23   ar
    33    19    20   ar
    34    19    41    1
    35    20    21   ar
    36    20    42    1
    37    21    22   ar
    38    21    24    1
    39    22    23   ar
    40    22    43    1
    41    23    44    1
    42    24    45    1
    43    26    46    1
    44    27    47    1
    45    28    48    1
    46    29    49    1
    47    30    50    1
    48     1    31    1
    49     1    27    1
    50     2    32    1
    51     2    28    1
    52     4    34    1
    53     4    30    1
