@<TRIPOS>MOLECULE
*****
 50 53 0 0 0
SMALL
GASTEIGER

@<TRIPOS>ATOM
     1 C         -0.368521   -1.396698   1.638363 C.3        1 UNL1     0.1889
     2 C         -0.487205   -0.971427   0.150075 C.3        1 UNL1     0.1342
     3 C         -1.92625   -0.897969   -0.383046 C.3        1 UNL1     0.1174
     4 C         -2.840161   -1.963899   0.226608 C.3        1 UNL1     0.1456
     5 C         -2.692151   -2.063755   1.755818 C.3        1 UNL1     0.2326
     6 O         -1.333839   -2.332083   2.096196 O.3        1 UNL1     -0.3076
     7 O         -3.239296   -0.933908   2.459663 O.3        1 UNL1     -0.4605
     8 C         -3.767156   -1.196841   3.710966 C.ar        1 UNL1     0.1310
     9 C         -4.609816   -2.268222   4.026191 C.ar        1 UNL1     0.0226
     10 C         -5.079902   -2.459687   5.330899 C.ar        1 UNL1     0.1343
     11 C         -4.699137   -1.59716   6.357985 C.ar        1 UNL1     0.1007
     12 C         -3.891176   -0.500131   6.047322 C.ar        1 UNL1     0.1389
     13 C         -3.420781   -0.306325   4.734844 C.ar        1 UNL1     0.0229
     14 C         -5.098215   -1.800564   7.769905 C.2        1 UNL1     0.1740
     15 C         -4.419928   -0.911926   8.770804 C.3        1 UNL1     0.0520
     16 C         -4.314785   0.487166   8.179667 C.3        1 UNL1     0.1322
     17 O         -3.544272   0.470987   6.957736 O.3        1 UNL1     -0.4828
     18 C         -5.657789   1.213614   8.073182 C.ar        1 UNL1     -0.0067
     19 C         -5.754648   2.377997   7.28385 C.ar        1 UNL1     -0.0516
     20 C         -6.955551   3.092991   7.202758 C.ar        1 UNL1     -0.0198
     21 C         -8.062188   2.659025   7.91047 C.ar        1 UNL1     0.1169
     22 C         -8.007329   1.49741   8.669732 C.ar        1 UNL1     -0.0198
     23 C         -6.811755   0.771996   8.736304 C.ar        1 UNL1     -0.0516
     24 O         -9.203647   3.402065   7.837236 O.3        1 UNL1     -0.5068
     25 O         -5.869745   -2.684172   8.133857 O.2        1 UNL1     -0.2917
     26 O         -5.899616   -3.523427   5.571965 O.3        1 UNL1     -0.5058
     27 O         -0.236217   -0.301506   2.53046 O.3        1 UNL1     -0.3648
     28 O         0.219932   -1.931709   -0.656474 O.3        1 UNL1     -0.3841
     29 O         -2.450613   0.42437   -0.24668 O.3        1 UNL1     -0.3863
     30 O         -2.524452   -3.24754   -0.355012 O.3        1 UNL1     -0.3829
     31 H         0.57871   -1.938574   1.734287 H        1 UNL1     0.0937
     32 H         0.0   0.0   0.0 H        1 UNL1     0.0671
     33 H         -1.893236   -1.088625   -1.464841 H        1 UNL1     0.0649
     34 H         -3.884975   -1.747481   -0.022247 H        1 UNL1     0.0683
     35 H         -3.269809   -2.958517   2.019618 H        1 UNL1     0.1085
     36 H         -4.896824   -3.00536   3.284319 H        1 UNL1     0.0691
     37 H         -2.793949   0.556151   4.518722 H        1 UNL1     0.0691
     38 H         -3.428275   -1.332595   8.968765 H        1 UNL1     0.0385
     39 H         -4.989743   -0.924458   9.706182 H        1 UNL1     0.0385
     40 H         -3.713672   1.088177   8.875346 H        1 UNL1     0.0789
     41 H         -4.897726   2.744363   6.726077 H        1 UNL1     0.0623
     42 H         -7.014261   3.996003   6.600151 H        1 UNL1     0.0654
     43 H         -8.872232   1.140292   9.21592 H        1 UNL1     0.0654
     44 H         -6.807731   -0.136676   9.330564 H        1 UNL1     0.0623
     45 H         -9.034214   4.265736   8.247212 H        1 UNL1     0.2921
     46 H         -5.526204   -4.064401   6.285633 H        1 UNL1     0.2922
     47 H         0.50841   0.256979   2.26686 H        1 UNL1     0.2126
     48 H         1.172164   -1.779172   -0.502467 H        1 UNL1     0.2101
     49 H         -2.002151   1.022643   -0.865343 H        1 UNL1     0.2100
     50 H         -2.782424   -3.222146   -1.299744 H        1 UNL1     0.2102
@<TRIPOS>BOND
     1     1     2    1
     2     1     6    1
     3     2     3    1
     4     3     4    1
     5     3    29    1
     6     3    33    1
     7     4     5    1
     8     5     6    1
     9     5     7    1
    10     5    35    1
    11     7     8    1
    12     8     9   ar
    13     8    13   ar
    14     9    10   ar
    15     9    36    1
    16    10    11   ar
    17    10    26    1
    18    11    12   ar
    19    11    14    1
    20    12    13   ar
    21    12    17    1
    22    13    37    1
    23    14    15    1
    24    14    25    2
    25    15    16    1
    26    15    38    1
    27    15    39    1
    28    16    17    1
    29    16    18    1
    30    16    40    1
    31    18    19   ar
    32    18    23   ar
    33    19    20   ar
    34    19    41    1
    35    20    21   ar
    36    20    42    1
    37    21    22   ar
    38    21    24    1
    39    22    23   ar
    40    22    43    1
    41    23    44    1
    42    24    45    1
    43    26    46    1
    44    27    47    1
    45    28    48    1
    46    29    49    1
    47    30    50    1
    48     1    31    1
    49     1    27    1
    50     2    32    1
    51     2    28    1
    52     4    34    1
    53     4    30    1
