@<TRIPOS>MOLECULE
*****
 50 53 0 0 0
SMALL
GASTEIGER

@<TRIPOS>ATOM
     1 C         -1.442748   -1.320785   0.972013 C.3        1 UNL1     0.1889
     2 C         -0.874906   -0.599741   -0.280022 C.3        1 UNL1     0.1342
     3 C         -1.882485   0.296963   -1.015666 C.3        1 UNL1     0.1174
     4 C         -3.307611   -0.260775   -0.983094 C.3        1 UNL1     0.1456
     5 C         -3.725022   -0.732024   0.421917 C.3        1 UNL1     0.2326
     6 O         -2.805826   -1.712029   0.898926 O.3        1 UNL1     -0.3076
     7 O         -3.933294   0.34778   1.350339 O.3        1 UNL1     -0.4605
     8 C         -4.891083   0.13298   2.325033 C.ar        1 UNL1     0.1310
     9 C         -6.164374   -0.403579   2.105633 C.ar        1 UNL1     0.0226
     10 C         -7.059632   -0.598943   3.164051 C.ar        1 UNL1     0.1343
     11 C         -6.694156   -0.284307   4.472206 C.ar        1 UNL1     0.1007
     12 C         -5.440579   0.290312   4.698352 C.ar        1 UNL1     0.1389
     13 C         -4.541575   0.489104   3.633596 C.ar        1 UNL1     0.0229
     14 C         -7.568767   -0.547987   5.63826 C.2        1 UNL1     0.1740
     15 C         -6.932469   -0.356467   6.98362 C.3        1 UNL1     0.0520
     16 C         -6.052922   0.88502   6.928253 C.3        1 UNL1     0.1322
     17 O         -5.019755   0.737358   5.929337 O.3        1 UNL1     -0.4828
     18 C         -6.840294   2.194439   6.837756 C.ar        1 UNL1     -0.0067
     19 C         -6.482528   3.151958   5.866481 C.ar        1 UNL1     -0.0516
     20 C         -7.151037   4.379489   5.787575 C.ar        1 UNL1     -0.0198
     21 C         -8.171833   4.663844   6.676926 C.ar        1 UNL1     0.1169
     22 C         -8.569234   3.727796   7.622826 C.ar        1 UNL1     -0.0198
     23 C         -7.913164   2.492839   7.689989 C.ar        1 UNL1     -0.0516
     24 O         -8.774603   5.884595   6.594244 O.3        1 UNL1     -0.5068
     25 O         -8.716686   -0.973536   5.539902 O.2        1 UNL1     -0.2917
     26 O         -8.286618   -1.125202   2.882729 O.3        1 UNL1     -0.5058
     27 O         -1.154548   -0.651358   2.18922 O.3        1 UNL1     -0.3648
     28 O         -0.425743   -1.597021   -1.216179 O.3        1 UNL1     -0.3841
     29 O         -1.803921   1.64282   -0.541716 O.3        1 UNL1     -0.3863
     30 O         -3.400091   -1.377822   -1.893777 O.3        1 UNL1     -0.3829
     31 H         -0.907154   -2.272842   1.054507 H        1 UNL1     0.0937
     32 H         0.0   0.0   0.0 H        1 UNL1     0.0671
     33 H         -1.582775   0.341672   -2.072026 H        1 UNL1     0.0649
     34 H         -4.014608   0.498798   -1.334668 H        1 UNL1     0.0683
     35 H         -4.680562   -1.245085   0.255813 H        1 UNL1     0.1085
     36 H         -6.487609   -0.720312   1.120078 H        1 UNL1     0.0691
     37 H         -3.572061   0.939223   3.835905 H        1 UNL1     0.0691
     38 H         -6.3393   -1.25141   7.199851 H        1 UNL1     0.0385
     39 H         -7.717182   -0.274406   7.743403 H        1 UNL1     0.0385
     40 H         -5.50833   0.938639   7.880652 H        1 UNL1     0.0789
     41 H         -5.678624   2.956439   5.162805 H        1 UNL1     0.0623
     42 H         -6.857962   5.114382   5.041887 H        1 UNL1     0.0654
     43 H         -9.377369   3.934191   8.314366 H        1 UNL1     0.0654
     44 H         -8.256785   1.781093   8.434426 H        1 UNL1     0.0623
     45 H         -8.103179   6.569136   6.746918 H        1 UNL1     0.2921
     46 H         -8.42202   -1.929338   3.408509 H        1 UNL1     0.2922
     47 H         -0.200288   -0.523057   2.282962 H        1 UNL1     0.2126
     48 H         0.28093   -2.101816   -0.769495 H        1 UNL1     0.2101
     49 H         -0.964199   2.042086   -0.819653 H        1 UNL1     0.2100
     50 H         -3.269887   -1.037149   -2.803009 H        1 UNL1     0.2102
@<TRIPOS>BOND
     1     1     2    1
     2     1     6    1
     3     2     3    1
     4     3     4    1
     5     3    29    1
     6     3    33    1
     7     4     5    1
     8     5     6    1
     9     5     7    1
    10     5    35    1
    11     7     8    1
    12     8     9   ar
    13     8    13   ar
    14     9    10   ar
    15     9    36    1
    16    10    11   ar
    17    10    26    1
    18    11    12   ar
    19    11    14    1
    20    12    13   ar
    21    12    17    1
    22    13    37    1
    23    14    15    1
    24    14    25    2
    25    15    16    1
    26    15    38    1
    27    15    39    1
    28    16    17    1
    29    16    18    1
    30    16    40    1
    31    18    19   ar
    32    18    23   ar
    33    19    20   ar
    34    19    41    1
    35    20    21   ar
    36    20    42    1
    37    21    22   ar
    38    21    24    1
    39    22    23   ar
    40    22    43    1
    41    23    44    1
    42    24    45    1
    43    26    46    1
    44    27    47    1
    45    28    48    1
    46    29    49    1
    47    30    50    1
    48     1    31    1
    49     1    27    1
    50     2    32    1
    51     2    28    1
    52     4    34    1
    53     4    30    1
