@<TRIPOS>MOLECULE
*****
 50 53 0 0 0
SMALL
GASTEIGER

@<TRIPOS>ATOM
     1 C         1.114153   -1.479259   1.158128 C.3        1 UNL1     0.1889
     2 C         -0.21358   -0.821637   0.69488 C.3        1 UNL1     0.1342
     3 C         -1.100775   -0.296658   1.834067 C.3        1 UNL1     0.1174
     4 C         -1.026897   -1.16526   3.092315 C.3        1 UNL1     0.1456
     5 C         0.419712   -1.52623   3.476223 C.3        1 UNL1     0.2326
     6 O         1.060895   -2.187379   2.387813 O.3        1 UNL1     -0.3076
     7 O         1.173585   -0.410211   3.983666 O.3        1 UNL1     -0.4605
     8 C         1.788049   0.38768   3.035335 C.ar        1 UNL1     0.1310
     9 C         1.579095   1.761567   2.873859 C.ar        1 UNL1     0.0226
     10 C         2.264114   2.487344   1.892075 C.ar        1 UNL1     0.1343
     11 C         3.193327   1.860701   1.062784 C.ar        1 UNL1     0.1007
     12 C         3.380267   0.481446   1.187257 C.ar        1 UNL1     0.1389
     13 C         2.68941   -0.24858   2.172756 C.ar        1 UNL1     0.0229
     14 C         4.006294   2.594456   0.065367 C.2        1 UNL1     0.1740
     15 C         5.108799   1.806987   -0.579556 C.3        1 UNL1     0.0520
     16 C         4.593587   0.403605   -0.867712 C.3        1 UNL1     0.1322
     17 O         4.18901   -0.254796   0.352901 O.3        1 UNL1     -0.4828
     18 C         3.557356   0.346567   -1.992743 C.ar        1 UNL1     -0.0067
     19 C         3.042396   1.547987   -2.521534 C.ar        1 UNL1     -0.0516
     20 C         2.059009   1.531018   -3.517839 C.ar        1 UNL1     -0.0198
     21 C         1.57813   0.321868   -3.987456 C.ar        1 UNL1     0.1169
     22 C         2.08954   -0.877953   -3.510247 C.ar        1 UNL1     -0.0198
     23 C         3.086138   -0.861243   -2.527104 C.ar        1 UNL1     -0.0516
     24 O         0.593404   0.344792   -4.930954 O.3        1 UNL1     -0.5068
     25 O         3.861303   3.789608   -0.177686 O.2        1 UNL1     -0.2917
     26 O         2.014075   3.824415   1.785745 O.3        1 UNL1     -0.5058
     27 O         2.2277   -0.60166   1.106928 O.3        1 UNL1     -0.3648
     28 O         -0.980422   -1.802446   -0.028081 O.3        1 UNL1     -0.3841
     29 O         -0.827215   1.081281   2.095946 O.3        1 UNL1     -0.3863
     30 O         -1.766231   -2.385691   2.869549 O.3        1 UNL1     -0.3829
     31 H         1.350353   -2.257686   0.424412 H        1 UNL1     0.0937
     32 H         0.0   0.0   0.0 H        1 UNL1     0.0671
     33 H         -2.143423   -0.32649   1.488069 H        1 UNL1     0.0649
     34 H         -1.505767   -0.649072   3.93174 H        1 UNL1     0.0683
     35 H         0.303799   -2.268012   4.276349 H        1 UNL1     0.1085
     36 H         0.911697   2.317075   3.52356 H        1 UNL1     0.0691
     37 H         2.851874   -1.3216   2.248429 H        1 UNL1     0.0691
     38 H         5.951242   1.782566   0.119886 H        1 UNL1     0.0385
     39 H         5.434191   2.323459   -1.489037 H        1 UNL1     0.0385
     40 H         5.446795   -0.186761   -1.228299 H        1 UNL1     0.0789
     41 H         3.396815   2.510075   -2.163167 H        1 UNL1     0.0623
     42 H         1.661344   2.464186   -3.909081 H        1 UNL1     0.0654
     43 H         1.730861   -1.830439   -3.881771 H        1 UNL1     0.0654
     44 H         3.470358   -1.817279   -2.184734 H        1 UNL1     0.0623
     45 H         -0.263758   0.266898   -4.481596 H        1 UNL1     0.2921
     46 H         2.853741   4.310359   1.770579 H        1 UNL1     0.2922
     47 H         2.156136   -0.014244   0.341631 H        1 UNL1     0.2126
     48 H         -0.346903   -2.474741   -0.344948 H        1 UNL1     0.2101
     49 H         -1.169504   1.629124   1.371722 H        1 UNL1     0.2100
     50 H         -1.930676   -2.467208   1.907247 H        1 UNL1     0.2102
@<TRIPOS>BOND
     1     1     2    1
     2     1     6    1
     3     2     3    1
     4     3     4    1
     5     3    29    1
     6     3    33    1
     7     4     5    1
     8     5     6    1
     9     5     7    1
    10     5    35    1
    11     7     8    1
    12     8     9   ar
    13     8    13   ar
    14     9    10   ar
    15     9    36    1
    16    10    11   ar
    17    10    26    1
    18    11    12   ar
    19    11    14    1
    20    12    13   ar
    21    12    17    1
    22    13    37    1
    23    14    15    1
    24    14    25    2
    25    15    16    1
    26    15    38    1
    27    15    39    1
    28    16    17    1
    29    16    18    1
    30    16    40    1
    31    18    19   ar
    32    18    23   ar
    33    19    20   ar
    34    19    41    1
    35    20    21   ar
    36    20    42    1
    37    21    22   ar
    38    21    24    1
    39    22    23   ar
    40    22    43    1
    41    23    44    1
    42    24    45    1
    43    26    46    1
    44    27    47    1
    45    28    48    1
    46    29    49    1
    47    30    50    1
    48     1    31    1
    49     1    27    1
    50     2    32    1
    51     2    28    1
    52     4    34    1
    53     4    30    1
