@<TRIPOS>MOLECULE
*****
 50 53 0 0 0
SMALL
GASTEIGER

@<TRIPOS>ATOM
     1 C         -2.016069   -0.78174   -0.308471 C.3        1 UNL1     0.1889
     2 C         -0.898332   -0.198828   0.597519 C.3        1 UNL1     0.1342
     3 C         -0.517929   -1.082397   1.79546 C.3        1 UNL1     0.1174
     4 C         -1.713581   -1.841186   2.376645 C.3        1 UNL1     0.1456
     5 C         -2.571474   -2.513088   1.289019 C.3        1 UNL1     0.2326
     6 O         -3.020978   -1.536664   0.352317 O.3        1 UNL1     -0.3076
     7 O         -1.928438   -3.640295   0.666742 O.3        1 UNL1     -0.4605
     8 C         -2.756789   -4.503453   -0.027751 C.ar        1 UNL1     0.1310
     9 C         -4.150698   -4.407211   -0.098847 C.ar        1 UNL1     0.0226
     10 C         -4.902301   -5.323133   -0.844556 C.ar        1 UNL1     0.1343
     11 C         -4.275593   -6.344416   -1.557339 C.ar        1 UNL1     0.1007
     12 C         -2.887669   -6.475348   -1.460875 C.ar        1 UNL1     0.1389
     13 C         -2.132397   -5.555849   -0.708865 C.ar        1 UNL1     0.0229
     14 C         -5.013252   -7.288582   -2.428295 C.2        1 UNL1     0.1740
     15 C         -4.163817   -8.175674   -3.290314 C.3        1 UNL1     0.0520
     16 C         -2.964702   -8.636471   -2.473156 C.3        1 UNL1     0.1322
     17 O         -2.179448   -7.506587   -2.03292 O.3        1 UNL1     -0.4828
     18 C         -3.319364   -9.632347   -1.366282 C.ar        1 UNL1     -0.0067
     19 C         -2.285019   -10.276603   -0.656861 C.ar        1 UNL1     -0.0516
     20 C         -2.574287   -11.227809   0.328783 C.ar        1 UNL1     -0.0198
     21 C         -3.890689   -11.548185   0.608553 C.ar        1 UNL1     0.1169
     22 C         -4.931758   -10.906472   -0.049641 C.ar        1 UNL1     -0.0198
     23 C         -4.643125   -9.941826   -1.022372 C.ar        1 UNL1     -0.0516
     24 O         -4.132958   -12.506744   1.548166 O.3        1 UNL1     -0.5068
     25 O         -6.237977   -7.309436   -2.51829 O.2        1 UNL1     -0.2917
     26 O         -6.2583   -5.174488   -0.872048 O.3        1 UNL1     -0.5058
     27 O         -1.520809   -1.457837   -1.453198 O.3        1 UNL1     -0.3648
     28 O         -1.348803   1.063803   1.122444 O.3        1 UNL1     -0.3841
     29 O         0.575178   -1.941493   1.464999 O.3        1 UNL1     -0.3863
     30 O         -2.542862   -0.921233   3.119389 O.3        1 UNL1     -0.3829
     31 H         -2.56538   0.073482   -0.717043 H        1 UNL1     0.0937
     32 H         0.0   0.0   0.0 H        1 UNL1     0.0671
     33 H         -0.14172   -0.424519   2.591314 H        1 UNL1     0.0649
     34 H         -1.365655   -2.60197   3.084145 H        1 UNL1     0.0683
     35 H         -3.457394   -2.866228   1.831529 H        1 UNL1     0.1085
     36 H         -4.692263   -3.602993   0.387015 H        1 UNL1     0.0691
     37 H         -1.053328   -5.680338   -0.648833 H        1 UNL1     0.0691
     38 H         -3.847589   -7.588712   -4.159223 H        1 UNL1     0.0385
     39 H         -4.769265   -9.015867   -3.647087 H        1 UNL1     0.0385
     40 H         -2.299741   -9.184116   -3.154648 H        1 UNL1     0.0789
     41 H         -1.243391   -10.04933   -0.864245 H        1 UNL1     0.0623
     42 H         -1.767638   -11.726362   0.860548 H        1 UNL1     0.0654
     43 H         -5.966498   -11.138835   0.172237 H        1 UNL1     0.0654
     44 H         -5.481294   -9.45274   -1.509314 H        1 UNL1     0.0623
     45 H         -4.482895   -13.293857   1.100155 H        1 UNL1     0.2921
     46 H         -6.498622   -4.52252   -1.549244 H        1 UNL1     0.2922
     47 H         -0.749363   -1.992375   -1.218681 H        1 UNL1     0.2126
     48 H         -1.08494   1.086054   2.062451 H        1 UNL1     0.2101
     49 H         0.674358   -1.993436   0.501018 H        1 UNL1     0.2100
     50 H         -3.320385   -0.701528   2.565403 H        1 UNL1     0.2102
@<TRIPOS>BOND
     1     1     2    1
     2     1     6    1
     3     2     3    1
     4     3     4    1
     5     3    29    1
     6     3    33    1
     7     4     5    1
     8     5     6    1
     9     5     7    1
    10     5    35    1
    11     7     8    1
    12     8     9   ar
    13     8    13   ar
    14     9    10   ar
    15     9    36    1
    16    10    11   ar
    17    10    26    1
    18    11    12   ar
    19    11    14    1
    20    12    13   ar
    21    12    17    1
    22    13    37    1
    23    14    15    1
    24    14    25    2
    25    15    16    1
    26    15    38    1
    27    15    39    1
    28    16    17    1
    29    16    18    1
    30    16    40    1
    31    18    19   ar
    32    18    23   ar
    33    19    20   ar
    34    19    41    1
    35    20    21   ar
    36    20    42    1
    37    21    22   ar
    38    21    24    1
    39    22    23   ar
    40    22    43    1
    41    23    44    1
    42    24    45    1
    43    26    46    1
    44    27    47    1
    45    28    48    1
    46    29    49    1
    47    30    50    1
    48     1    31    1
    49     1    27    1
    50     2    32    1
    51     2    28    1
    52     4    34    1
    53     4    30    1
