@<TRIPOS>MOLECULE
*****
 50 53 0 0 0
SMALL
GASTEIGER

@<TRIPOS>ATOM
     1 C         -0.248295   -1.392403   1.664442 C.3        1 UNL1     0.1889
     2 C         -0.442071   -0.988121   0.178189 C.3        1 UNL1     0.1342
     3 C         -1.902716   -0.976892   -0.298103 C.3        1 UNL1     0.1174
     4 C         -2.749043   -2.071238   0.357072 C.3        1 UNL1     0.1456
     5 C         -2.537271   -2.148786   1.880063 C.3        1 UNL1     0.2326
     6 O         -1.15708   -2.359961   2.168761 O.3        1 UNL1     -0.3076
     7 O         -3.100691   -1.033775   2.594647 O.3        1 UNL1     -0.4605
     8 C         -3.557432   -1.301169   3.872698 C.ar        1 UNL1     0.1310
     9 C         -4.34472   -2.39815   4.23891 C.ar        1 UNL1     0.0226
     10 C         -4.743773   -2.591476   5.566797 C.ar        1 UNL1     0.1343
     11 C         -4.344913   -1.704483   6.565794 C.ar        1 UNL1     0.1007
     12 C         -3.592962   -0.583051   6.205591 C.ar        1 UNL1     0.1389
     13 C         -3.194062   -0.387463   4.869906 C.ar        1 UNL1     0.0229
     14 C         -4.667457   -1.906013   7.997403 C.2        1 UNL1     0.1740
     15 C         -3.973828   -0.98267   8.955456 C.3        1 UNL1     0.0520
     16 C         -3.947885   0.412531   8.346606 C.3        1 UNL1     0.1322
     17 O         -3.237467   0.409943   7.088683 O.3        1 UNL1     -0.4828
     18 C         -5.319738   1.089641   8.298986 C.ar        1 UNL1     -0.0067
     19 C         -5.75429   1.690341   7.099595 C.ar        1 UNL1     -0.0516
     20 C         -6.982582   2.358992   7.035031 C.ar        1 UNL1     -0.0198
     21 C         -7.78032   2.440082   8.162357 C.ar        1 UNL1     0.1169
     22 C         -7.394958   1.82982   9.348913 C.ar        1 UNL1     -0.0198
     23 C         -6.175176   1.145268   9.408727 C.ar        1 UNL1     -0.0516
     24 O         -8.952331   3.131875   8.071738 O.3        1 UNL1     -0.5068
     25 O         -5.388137   -2.812281   8.407019 O.2        1 UNL1     -0.2917
     26 O         -5.512029   -3.680841   5.857747 O.3        1 UNL1     -0.5058
     27 O         -0.124559   -0.283349   2.540498 O.3        1 UNL1     -0.3648
     28 O         0.270342   -1.928534   -0.646915 O.3        1 UNL1     -0.3841
     29 O         -2.473295   0.325251   -0.153199 O.3        1 UNL1     -0.3863
     30 O         -2.405807   -3.347681   -0.224799 O.3        1 UNL1     -0.3829
     31 H         0.722695   -1.895648   1.727702 H        1 UNL1     0.0937
     32 H         0.0   0.0   0.0 H        1 UNL1     0.0671
     33 H         -1.904672   -1.177711   -1.37856 H        1 UNL1     0.0649
     34 H         -3.810574   -1.898651   0.147866 H        1 UNL1     0.0683
     35 H         -3.068227   -3.062632   2.174766 H        1 UNL1     0.1085
     36 H         -4.64067   -3.153305   3.518998 H        1 UNL1     0.0691
     37 H         -2.609885   0.494218   4.615211 H        1 UNL1     0.0691
     38 H         -2.959249   -1.365646   9.108703 H        1 UNL1     0.0385
     39 H         -4.496781   -1.004879   9.917644 H        1 UNL1     0.0385
     40 H         -3.335746   1.042275   9.006324 H        1 UNL1     0.0789
     41 H         -5.142225   1.648508   6.203338 H        1 UNL1     0.0623
     42 H         -7.301136   2.828386   6.107559 H        1 UNL1     0.0654
     43 H         -8.018924   1.874297   10.233559 H        1 UNL1     0.0654
     44 H         -5.910538   0.671245   10.349 H        1 UNL1     0.0623
     45 H         -9.683309   2.523985   8.268861 H        1 UNL1     0.2921
     46 H         -5.073127   -4.213409   6.539765 H        1 UNL1     0.2922
     47 H         0.600027   0.290175   2.254309 H        1 UNL1     0.2126
     48 H         1.212507   -1.86041   -0.399091 H        1 UNL1     0.2101
     49 H         -2.067165   0.936089   -0.788596 H        1 UNL1     0.2100
     50 H         -2.675918   -3.332236   -1.166347 H        1 UNL1     0.2102
@<TRIPOS>BOND
     1     1     2    1
     2     1     6    1
     3     2     3    1
     4     3     4    1
     5     3    29    1
     6     3    33    1
     7     4     5    1
     8     5     6    1
     9     5     7    1
    10     5    35    1
    11     7     8    1
    12     8     9   ar
    13     8    13   ar
    14     9    10   ar
    15     9    36    1
    16    10    11   ar
    17    10    26    1
    18    11    12   ar
    19    11    14    1
    20    12    13   ar
    21    12    17    1
    22    13    37    1
    23    14    15    1
    24    14    25    2
    25    15    16    1
    26    15    38    1
    27    15    39    1
    28    16    17    1
    29    16    18    1
    30    16    40    1
    31    18    19   ar
    32    18    23   ar
    33    19    20   ar
    34    19    41    1
    35    20    21   ar
    36    20    42    1
    37    21    22   ar
    38    21    24    1
    39    22    23   ar
    40    22    43    1
    41    23    44    1
    42    24    45    1
    43    26    46    1
    44    27    47    1
    45    28    48    1
    46    29    49    1
    47    30    50    1
    48     1    31    1
    49     1    27    1
    50     2    32    1
    51     2    28    1
    52     4    34    1
    53     4    30    1
