@<TRIPOS>MOLECULE
*****
 50 53 0 0 0
SMALL
GASTEIGER

@<TRIPOS>ATOM
     1 C         -0.356619   -1.339215   1.688233 C.3        1 UNL1     0.1889
     2 C         -0.475508   -0.971244   0.18477 C.3        1 UNL1     0.1342
     3 C         -1.91352   -0.935916   -0.354988 C.3        1 UNL1     0.1174
     4 C         -2.816092   -1.989857   0.291299 C.3        1 UNL1     0.1456
     5 C         -2.672098   -2.03077   1.823603 C.3        1 UNL1     0.2326
     6 O         -1.311707   -2.269023   2.177782 O.3        1 UNL1     -0.3076
     7 O         -3.235772   -0.882487   2.483176 O.3        1 UNL1     -0.4605
     8 C         -3.753973   -1.102822   3.746683 C.ar        1 UNL1     0.1310
     9 C         -4.585236   -2.168866   4.107031 C.ar        1 UNL1     0.0226
     10 C         -5.045989   -2.315282   5.420869 C.ar        1 UNL1     0.1343
     11 C         -4.666914   -1.411547   6.412537 C.ar        1 UNL1     0.1007
     12 C         -3.870548   -0.320003   6.056001 C.ar        1 UNL1     0.1389
     13 C         -3.409553   -0.171537   4.734308 C.ar        1 UNL1     0.0229
     14 C         -5.055931   -1.565253   7.83352 C.2        1 UNL1     0.1740
     15 C         -4.379736   -0.633836   8.79621 C.3        1 UNL1     0.0520
     16 C         -4.290466   0.742938   8.152408 C.3        1 UNL1     0.1322
     17 O         -3.526976   0.68757   6.927219 O.3        1 UNL1     -0.4828
     18 C         -5.640464   1.453229   8.027041 C.ar        1 UNL1     -0.0067
     19 C         -6.006859   2.031626   6.794391 C.ar        1 UNL1     -0.0516
     20 C         -7.212977   2.72934   6.6586 C.ar        1 UNL1     -0.0198
     21 C         -8.05602   2.861682   7.747448 C.ar        1 UNL1     0.1169
     22 C         -7.738455   2.274631   8.965382 C.ar        1 UNL1     -0.0198
     23 C         -6.541056   1.561115   9.096475 C.ar        1 UNL1     -0.0516
     24 O         -9.204192   3.580371   7.587487 O.3        1 UNL1     -0.5068
     25 O         -5.817452   -2.44122   8.235083 O.2        1 UNL1     -0.2917
     26 O         -5.854808   -3.376275   5.706684 O.3        1 UNL1     -0.5058
     27 O         -0.241113   -0.209949   2.539236 O.3        1 UNL1     -0.3648
     28 O         0.246373   -1.951897   -0.583289 O.3        1 UNL1     -0.3841
     29 O         -2.454876   0.383848   -0.26961 O.3        1 UNL1     -0.3863
     30 O         -2.482327   -3.290188   -0.241084 O.3        1 UNL1     -0.3829
     31 H         0.596993   -1.865114   1.807118 H        1 UNL1     0.0937
     32 H         0.0   0.0   0.0 H        1 UNL1     0.0671
     33 H         -1.874403   -1.166325   -1.428813 H        1 UNL1     0.0649
     34 H         -3.862675   -1.796098   0.031445 H        1 UNL1     0.0683
     35 H         -3.239402   -2.922314   2.118888 H        1 UNL1     0.1085
     36 H         -4.87001   -2.935788   3.395093 H        1 UNL1     0.0691
     37 H         -2.791672   0.68761   4.482152 H        1 UNL1     0.0691
     38 H         -3.38325   -1.038182   9.003689 H        1 UNL1     0.0385
     39 H         -4.943954   -0.616178   9.734892 H        1 UNL1     0.0385
     40 H         -3.690666   1.374818   8.821353 H        1 UNL1     0.0789
     41 H         -5.358144   1.949595   5.92716 H        1 UNL1     0.0623
     42 H         -7.478719   3.181037   5.706044 H        1 UNL1     0.0654
     43 H         -8.398486   2.359289   9.820427 H        1 UNL1     0.0654
     44 H         -6.329834   1.106516   10.05958 H        1 UNL1     0.0623
     45 H         -8.96577   4.487321   7.335862 H        1 UNL1     0.2921
     46 H         -5.460613   -3.90013   6.421945 H        1 UNL1     0.2922
     47 H         0.510031   0.336901   2.269798 H        1 UNL1     0.2126
     48 H         1.178694   -1.90027   -0.297203 H        1 UNL1     0.2101
     49 H         -2.005678   0.966389   -0.902587 H        1 UNL1     0.2100
     50 H         -2.711225   -3.29382   -1.193609 H        1 UNL1     0.2102
@<TRIPOS>BOND
     1     1     2    1
     2     1     6    1
     3     2     3    1
     4     3     4    1
     5     3    29    1
     6     3    33    1
     7     4     5    1
     8     5     6    1
     9     5     7    1
    10     5    35    1
    11     7     8    1
    12     8     9   ar
    13     8    13   ar
    14     9    10   ar
    15     9    36    1
    16    10    11   ar
    17    10    26    1
    18    11    12   ar
    19    11    14    1
    20    12    13   ar
    21    12    17    1
    22    13    37    1
    23    14    15    1
    24    14    25    2
    25    15    16    1
    26    15    38    1
    27    15    39    1
    28    16    17    1
    29    16    18    1
    30    16    40    1
    31    18    19   ar
    32    18    23   ar
    33    19    20   ar
    34    19    41    1
    35    20    21   ar
    36    20    42    1
    37    21    22   ar
    38    21    24    1
    39    22    23   ar
    40    22    43    1
    41    23    44    1
    42    24    45    1
    43    26    46    1
    44    27    47    1
    45    28    48    1
    46    29    49    1
    47    30    50    1
    48     1    31    1
    49     1    27    1
    50     2    32    1
    51     2    28    1
    52     4    34    1
    53     4    30    1
