@<TRIPOS>MOLECULE
*****
 50 53 0 0 0
SMALL
GASTEIGER

@<TRIPOS>ATOM
     1 C         0.322902   -1.872752   1.076726 C.3        1 UNL1     0.1889
     2 C         -0.516293   -0.607284   0.753796 C.3        1 UNL1     0.1342
     3 C         -0.842029   0.27362   1.969678 C.3        1 UNL1     0.1174
     4 C         -1.066105   -0.53831   3.247831 C.3        1 UNL1     0.1456
     5 C         0.017298   -1.610762   3.463352 C.3        1 UNL1     0.2326
     6 O         0.071277   -2.480766   2.335057 O.3        1 UNL1     -0.3076
     7 O         1.300764   -1.06554   3.819398 O.3        1 UNL1     -0.4605
     8 C         2.354504   -1.961416   3.843205 C.ar        1 UNL1     0.1310
     9 C         3.058373   -2.354365   4.986647 C.ar        1 UNL1     0.0226
     10 C         4.102626   -3.283646   4.909997 C.ar        1 UNL1     0.1343
     11 C         4.453009   -3.861006   3.690273 C.ar        1 UNL1     0.1007
     12 C         3.784643   -3.445891   2.535391 C.ar        1 UNL1     0.1389
     13 C         2.736449   -2.509516   2.612342 C.ar        1 UNL1     0.0229
     14 C         5.491664   -4.909589   3.564482 C.2        1 UNL1     0.1740
     15 C         5.582823   -5.575547   2.222939 C.3        1 UNL1     0.0520
     16 C         5.405319   -4.514727   1.145391 C.3        1 UNL1     0.1322
     17 O         4.119631   -3.867703   1.26964 O.3        1 UNL1     -0.4828
     18 C         6.590364   -3.553408   1.025979 C.ar        1 UNL1     -0.0067
     19 C         7.280707   -3.453989   -0.199483 C.ar        1 UNL1     -0.0516
     20 C         8.397775   -2.620123   -0.329059 C.ar        1 UNL1     -0.0198
     21 C         8.837875   -1.887806   0.75899 C.ar        1 UNL1     0.1169
     22 C         8.158935   -1.939047   1.969467 C.ar        1 UNL1     -0.0198
     23 C         7.030818   -2.758726   2.094096 C.ar        1 UNL1     -0.0516
     24 O         9.951747   -1.115667   0.605718 O.3        1 UNL1     -0.5068
     25 O         6.190581   -5.28487   4.50212 O.2        1 UNL1     -0.2917
     26 O         4.7498   -3.623708   6.061999 O.3        1 UNL1     -0.5058
     27 O         1.71238   -1.703962   0.845105 O.3        1 UNL1     -0.3648
     28 O         -1.768703   -1.02484   0.179495 O.3        1 UNL1     -0.3841
     29 O         0.140097   1.299142   2.130504 O.3        1 UNL1     -0.3863
     30 O         -2.354186   -1.18755   3.176939 O.3        1 UNL1     -0.3829
     31 H         0.02077   -2.640711   0.356285 H        1 UNL1     0.0937
     32 H         0.0   0.0   0.0 H        1 UNL1     0.0671
     33 H         -1.782876   0.801095   1.759206 H        1 UNL1     0.0649
     34 H         -1.091272   0.129873   4.115759 H        1 UNL1     0.0683
     35 H         -0.361197   -2.203635   4.305446 H        1 UNL1     0.1085
     36 H         2.797501   -1.984271   5.97209 H        1 UNL1     0.0691
     37 H         2.232666   -2.202024   1.69848 H        1 UNL1     0.0691
     38 H         4.788062   -6.327385   2.17173 H        1 UNL1     0.0385
     39 H         6.546322   -6.090302   2.142473 H        1 UNL1     0.0385
     40 H         5.357268   -5.037982   0.18081 H        1 UNL1     0.0789
     41 H         6.96061   -4.025526   -1.065816 H        1 UNL1     0.0623
     42 H         8.928764   -2.561151   -1.27594 H        1 UNL1     0.0654
     43 H         8.486038   -1.358237   2.823618 H        1 UNL1     0.0654
     44 H         6.51846   -2.766336   3.051319 H        1 UNL1     0.0623
     45 H         9.690709   -0.183196   0.676953 H        1 UNL1     0.2921
     46 H         5.708164   -3.55467   5.927151 H        1 UNL1     0.2922
     47 H         2.190281   -2.514253   1.07071 H        1 UNL1     0.2126
     48 H         -1.611605   -1.145025   -0.776856 H        1 UNL1     0.2101
     49 H         0.790623   1.031178   2.79894 H        1 UNL1     0.2100
     50 H         -3.02839   -0.556282   3.50353 H        1 UNL1     0.2102
@<TRIPOS>BOND
     1     1     2    1
     2     1     6    1
     3     2     3    1
     4     3     4    1
     5     3    29    1
     6     3    33    1
     7     4     5    1
     8     5     6    1
     9     5     7    1
    10     5    35    1
    11     7     8    1
    12     8     9   ar
    13     8    13   ar
    14     9    10   ar
    15     9    36    1
    16    10    11   ar
    17    10    26    1
    18    11    12   ar
    19    11    14    1
    20    12    13   ar
    21    12    17    1
    22    13    37    1
    23    14    15    1
    24    14    25    2
    25    15    16    1
    26    15    38    1
    27    15    39    1
    28    16    17    1
    29    16    18    1
    30    16    40    1
    31    18    19   ar
    32    18    23   ar
    33    19    20   ar
    34    19    41    1
    35    20    21   ar
    36    20    42    1
    37    21    22   ar
    38    21    24    1
    39    22    23   ar
    40    22    43    1
    41    23    44    1
    42    24    45    1
    43    26    46    1
    44    27    47    1
    45    28    48    1
    46    29    49    1
    47    30    50    1
    48     1    31    1
    49     1    27    1
    50     2    32    1
    51     2    28    1
    52     4    34    1
    53     4    30    1
