@<TRIPOS>MOLECULE
*****
 50 53 0 0 0
SMALL
GASTEIGER

@<TRIPOS>ATOM
     1 C         -0.33554   -1.329929   1.699854 C.3        1 UNL1     0.1889
     2 C         -0.464338   -0.974818   0.194116 C.3        1 UNL1     0.1342
     3 C         -1.90478   -0.959003   -0.340058 C.3        1 UNL1     0.1174
     4 C         -2.793435   -2.017526   0.317922 C.3        1 UNL1     0.1456
     5 C         -2.642921   -2.045117   1.849897 C.3        1 UNL1     0.2326
     6 O         -1.27866   -2.266095   2.200367 O.3        1 UNL1     -0.3076
     7 O         -3.216239   -0.897884   2.502954 O.3        1 UNL1     -0.4605
     8 C         -3.727449   -1.114126   3.770011 C.ar        1 UNL1     0.1310
     9 C         -4.54327   -2.187976   4.142277 C.ar        1 UNL1     0.0226
     10 C         -4.997864   -2.329108   5.458836 C.ar        1 UNL1     0.1343
     11 C         -4.627741   -1.411834   6.441414 C.ar        1 UNL1     0.1007
     12 C         -3.847143   -0.312919   6.072853 C.ar        1 UNL1     0.1389
     13 C         -3.392359   -0.169803   4.748422 C.ar        1 UNL1     0.0229
     14 C         -5.010171   -1.55837   7.864941 C.2        1 UNL1     0.1740
     15 C         -4.343417   -0.609714   8.817327 C.3        1 UNL1     0.0520
     16 C         -4.274563   0.762489   8.161372 C.3        1 UNL1     0.1322
     17 O         -3.514287   0.706661   6.934207 O.3        1 UNL1     -0.4828
     18 C         -5.634308   1.453628   8.034309 C.ar        1 UNL1     -0.0067
     19 C         -6.011506   2.018014   6.798427 C.ar        1 UNL1     -0.0516
     20 C         -7.22724   2.698436   6.660662 C.ar        1 UNL1     -0.0198
     21 C         -8.069293   2.827392   7.750682 C.ar        1 UNL1     0.1169
     22 C         -7.74084   2.25359   8.972037 C.ar        1 UNL1     -0.0198
     23 C         -6.533622   1.557215   9.105242 C.ar        1 UNL1     -0.0516
     24 O         -9.227429   3.52939   7.588446 O.3        1 UNL1     -0.5068
     25 O         -5.758661   -2.44088   8.27655 O.2        1 UNL1     -0.2917
     26 O         -5.791546   -3.398255   5.756455 O.3        1 UNL1     -0.5058
     27 O         -0.228757   -0.192986   2.541724 O.3        1 UNL1     -0.3648
     28 O         0.264949   -1.95358   -0.569344 O.3        1 UNL1     -0.3841
     29 O         -2.459899   0.35552   -0.262577 O.3        1 UNL1     -0.3863
     30 O         -2.447878   -3.318272   -0.205854 O.3        1 UNL1     -0.3829
     31 H         0.624116   -1.844683   1.818887 H        1 UNL1     0.0937
     32 H         0.0   0.0   0.0 H        1 UNL1     0.0671
     33 H         -1.867465   -1.19723   -1.412241 H        1 UNL1     0.0649
     34 H         -3.843057   -1.836961   0.060842 H        1 UNL1     0.0683
     35 H         -3.199465   -2.940374   2.154289 H        1 UNL1     0.1085
     36 H         -4.820039   -2.964771   3.437926 H        1 UNL1     0.0691
     37 H         -2.786797   0.695274   4.486829 H        1 UNL1     0.0691
     38 H         -3.340973   -0.998941   9.025017 H        1 UNL1     0.0385
     39 H         -4.904844   -0.591424   9.757669 H        1 UNL1     0.0385
     40 H         -3.681131   1.408079   8.822864 H        1 UNL1     0.0789
     41 H         -5.363892   1.93837   5.93015 H        1 UNL1     0.0623
     42 H         -7.501395   3.139539   5.705529 H        1 UNL1     0.0654
     43 H         -8.399834   2.335618   9.828138 H        1 UNL1     0.0654
     44 H         -6.313918   1.112555   10.071085 H        1 UNL1     0.0623
     45 H         -9.001863   4.437598   7.329611 H        1 UNL1     0.2921
     46 H         -5.388134   -3.910589   6.474915 H        1 UNL1     0.2922
     47 H         0.515409   0.35977   2.265069 H        1 UNL1     0.2126
     48 H         1.197792   -1.8898   -0.287446 H        1 UNL1     0.2101
     49 H         -2.019546   0.937921   -0.901867 H        1 UNL1     0.2100
     50 H         -2.680507   -3.331672   -1.157387 H        1 UNL1     0.2102
@<TRIPOS>BOND
     1     1     2    1
     2     1     6    1
     3     2     3    1
     4     3     4    1
     5     3    29    1
     6     3    33    1
     7     4     5    1
     8     5     6    1
     9     5     7    1
    10     5    35    1
    11     7     8    1
    12     8     9   ar
    13     8    13   ar
    14     9    10   ar
    15     9    36    1
    16    10    11   ar
    17    10    26    1
    18    11    12   ar
    19    11    14    1
    20    12    13   ar
    21    12    17    1
    22    13    37    1
    23    14    15    1
    24    14    25    2
    25    15    16    1
    26    15    38    1
    27    15    39    1
    28    16    17    1
    29    16    18    1
    30    16    40    1
    31    18    19   ar
    32    18    23   ar
    33    19    20   ar
    34    19    41    1
    35    20    21   ar
    36    20    42    1
    37    21    22   ar
    38    21    24    1
    39    22    23   ar
    40    22    43    1
    41    23    44    1
    42    24    45    1
    43    26    46    1
    44    27    47    1
    45    28    48    1
    46    29    49    1
    47    30    50    1
    48     1    31    1
    49     1    27    1
    50     2    32    1
    51     2    28    1
    52     4    34    1
    53     4    30    1
