@<TRIPOS>MOLECULE
*****
 50 53 0 0 0
SMALL
GASTEIGER

@<TRIPOS>ATOM
     1 C         -0.329915   -1.327213   1.703076 C.3        1 UNL1     0.1889
     2 C         -0.46148   -0.975648   0.196745 C.3        1 UNL1     0.1342
     3 C         -1.902602   -0.964838   -0.335719 C.3        1 UNL1     0.1174
     4 C         -2.787614   -2.024345   0.325579 C.3        1 UNL1     0.1456
     5 C         -2.635182   -2.048278   1.857426 C.3        1 UNL1     0.2326
     6 O         -1.26991   -2.264844   2.206713 O.3        1 UNL1     -0.3076
     7 O         -3.210796   -0.901205   2.508742 O.3        1 UNL1     -0.4605
     8 C         -3.719472   -1.116022   3.77706 C.ar        1 UNL1     0.1310
     9 C         -4.534494   -2.189486   4.152178 C.ar        1 UNL1     0.0226
     10 C         -4.98646   -2.329133   5.469801 C.ar        1 UNL1     0.1343
     11 C         -4.614429   -1.410717   6.450589 C.ar        1 UNL1     0.1007
     12 C         -3.834624   -0.312186   6.079218 C.ar        1 UNL1     0.1389
     13 C         -3.382483   -0.170563   4.753721 C.ar        1 UNL1     0.0229
     14 C         -4.994017   -1.555643   7.875041 C.2        1 UNL1     0.1740
     15 C         -4.325417   -0.605864   8.825012 C.3        1 UNL1     0.0520
     16 C         -4.257941   0.76559   8.167351 C.3        1 UNL1     0.1322
     17 O         -3.500106   0.708396   6.93874 O.3        1 UNL1     -0.4828
     18 C         -5.617971   1.456517   8.042204 C.ar        1 UNL1     -0.0067
     19 C         -5.998492   2.017729   6.805896 C.ar        1 UNL1     -0.0516
     20 C         -7.214543   2.697897   6.669682 C.ar        1 UNL1     -0.0198
     21 C         -8.053611   2.829753   7.761657 C.ar        1 UNL1     0.1169
     22 C         -7.721875   2.25909   8.983595 C.ar        1 UNL1     -0.0198
     23 C         -6.514354   1.562958   9.115313 C.ar        1 UNL1     -0.0516
     24 O         -9.212128   3.531428   7.600759 O.3        1 UNL1     -0.5068
     25 O         -5.74164   -2.437718   8.289149 O.2        1 UNL1     -0.2917
     26 O         -5.779493   -3.397979   5.770222 O.3        1 UNL1     -0.5058
     27 O         -0.225176   -0.188201   2.542402 O.3        1 UNL1     -0.3648
     28 O         0.269516   -1.954066   -0.56552 O.3        1 UNL1     -0.3841
     29 O         -2.461161   0.348351   -0.260354 O.3        1 UNL1     -0.3863
     30 O         -2.43919   -3.325267   -0.195855 O.3        1 UNL1     -0.3829
     31 H         0.631265   -1.839132   1.822038 H        1 UNL1     0.0937
     32 H         0.0   0.0   0.0 H        1 UNL1     0.0671
     33 H         -1.865937   -1.20524   -1.407439 H        1 UNL1     0.0649
     34 H         -3.838026   -1.847147   0.069387 H        1 UNL1     0.0683
     35 H         -3.188949   -2.944378   2.164388 H        1 UNL1     0.1085
     36 H         -4.812625   -2.9671   3.449269 H        1 UNL1     0.0691
     37 H         -2.777489   0.694244   4.489934 H        1 UNL1     0.0691
     38 H         -3.322542   -0.994803   9.031151 H        1 UNL1     0.0385
     39 H         -4.884972   -0.586526   9.766449 H        1 UNL1     0.0385
     40 H         -3.663226   1.411966   8.826921 H        1 UNL1     0.0789
     41 H         -5.353255   1.935778   5.936067 H        1 UNL1     0.0623
     42 H         -7.491266   3.136547   5.71416 H        1 UNL1     0.0654
     43 H         -8.378526   2.343395   9.841274 H        1 UNL1     0.0654
     44 H         -6.292053   1.120784   10.081703 H        1 UNL1     0.0623
     45 H         -8.987231   4.438632   7.337852 H        1 UNL1     0.2921
     46 H         -5.373978   -3.910198   6.487579 H        1 UNL1     0.2922
     47 H         0.517272   0.365875   2.263782 H        1 UNL1     0.2126
     48 H         1.202345   -1.887913   -0.284118 H        1 UNL1     0.2101
     49 H         -2.023086   0.930596   -0.901349 H        1 UNL1     0.2100
     50 H         -2.672928   -3.341313   -1.147076 H        1 UNL1     0.2102
@<TRIPOS>BOND
     1     1     2    1
     2     1     6    1
     3     2     3    1
     4     3     4    1
     5     3    29    1
     6     3    33    1
     7     4     5    1
     8     5     6    1
     9     5     7    1
    10     5    35    1
    11     7     8    1
    12     8     9   ar
    13     8    13   ar
    14     9    10   ar
    15     9    36    1
    16    10    11   ar
    17    10    26    1
    18    11    12   ar
    19    11    14    1
    20    12    13   ar
    21    12    17    1
    22    13    37    1
    23    14    15    1
    24    14    25    2
    25    15    16    1
    26    15    38    1
    27    15    39    1
    28    16    17    1
    29    16    18    1
    30    16    40    1
    31    18    19   ar
    32    18    23   ar
    33    19    20   ar
    34    19    41    1
    35    20    21   ar
    36    20    42    1
    37    21    22   ar
    38    21    24    1
    39    22    23   ar
    40    22    43    1
    41    23    44    1
    42    24    45    1
    43    26    46    1
    44    27    47    1
    45    28    48    1
    46    29    49    1
    47    30    50    1
    48     1    31    1
    49     1    27    1
    50     2    32    1
    51     2    28    1
    52     4    34    1
    53     4    30    1
