@<TRIPOS>MOLECULE
*****
 50 53 0 0 0
SMALL
GASTEIGER

@<TRIPOS>ATOM
     1 C         -0.952738   -1.961359   0.127139 C.3        1 UNL1     0.1889
     2 C         -0.015215   -0.856875   0.684906 C.3        1 UNL1     0.1342
     3 C         1.42789   -1.313541   0.948289 C.3        1 UNL1     0.1174
     4 C         1.512693   -2.763421   1.431792 C.3        1 UNL1     0.1456
     5 C         0.646696   -3.718026   0.589686 C.3        1 UNL1     0.2326
     6 O         -0.709722   -3.278788   0.598009 O.3        1 UNL1     -0.3076
     7 O         1.161429   -3.94015   -0.735845 O.3        1 UNL1     -0.4605
     8 C         0.942424   -5.197941   -1.268317 C.ar        1 UNL1     0.1310
     9 C         -0.207582   -5.596969   -1.957927 C.ar        1 UNL1     0.0226
     10 C         -0.328102   -6.892003   -2.475869 C.ar        1 UNL1     0.1343
     11 C         0.709391   -7.813004   -2.337286 C.ar        1 UNL1     0.1007
     12 C         1.845795   -7.439153   -1.615062 C.ar        1 UNL1     0.1389
     13 C         1.965635   -6.137783   -1.092086 C.ar        1 UNL1     0.0229
     14 C         0.669781   -9.166917   -2.936873 C.2        1 UNL1     0.1740
     15 C         1.954677   -9.939839   -2.880457 C.3        1 UNL1     0.0520
     16 C         2.600414   -9.702566   -1.522266 C.3        1 UNL1     0.1322
     17 O         2.87985   -8.2989   -1.325525 O.3        1 UNL1     -0.4828
     18 C         1.858285   -10.370331   -0.362068 C.ar        1 UNL1     -0.0067
     19 C         1.043278   -11.492665   -0.61573 C.ar        1 UNL1     -0.0516
     20 C         0.313684   -12.098121   0.414356 C.ar        1 UNL1     -0.0198
     21 C         0.384702   -11.587378   1.698071 C.ar        1 UNL1     0.1169
     22 C         1.204537   -10.503848   1.985598 C.ar        1 UNL1     -0.0198
     23 C         1.948564   -9.909585   0.959279 C.ar        1 UNL1     -0.0516
     24 O         -0.369298   -12.179952   2.667989 O.3        1 UNL1     -0.5068
     25 O         -0.312071   -9.619986   -3.519263 O.2        1 UNL1     -0.2917
     26 O         -1.475993   -7.218343   -3.137258 O.3        1 UNL1     -0.5058
     27 O         -1.089871   -1.926687   -1.284519 O.3        1 UNL1     -0.3648
     28 O         -0.552652   -0.391883   1.936964 O.3        1 UNL1     -0.3841
     29 O         2.255466   -1.060034   -0.188805 O.3        1 UNL1     -0.3863
     30 O         1.075201   -2.83073   2.806478 O.3        1 UNL1     -0.3829
     31 H         -1.957614   -1.737011   0.501268 H        1 UNL1     0.0937
     32 H         0.0   0.0   0.0 H        1 UNL1     0.0671
     33 H         1.836744   -0.685936   1.752447 H        1 UNL1     0.0649
     34 H         2.553548   -3.104785   1.409581 H        1 UNL1     0.0683
     35 H         0.679095   -4.663833   1.144914 H        1 UNL1     0.1085
     36 H         -1.025688   -4.910761   -2.147511 H        1 UNL1     0.0691
     37 H         2.860022   -5.87195   -0.532714 H        1 UNL1     0.0691
     38 H         2.595365   -9.576883   -3.691202 H        1 UNL1     0.0385
     39 H         1.744102   -10.999768   -3.059307 H        1 UNL1     0.0385
     40 H         3.589967   -10.178704   -1.546699 H        1 UNL1     0.0789
     41 H         0.963442   -11.906906   -1.616571 H        1 UNL1     0.0623
     42 H         -0.320494   -12.955727   0.203777 H        1 UNL1     0.0654
     43 H         1.279226   -10.10517   2.990281 H        1 UNL1     0.0654
     44 H         2.586805   -9.07139   1.22181 H        1 UNL1     0.0623
     45 H         0.147271   -12.197863   3.48991 H        1 UNL1     0.2921
     46 H         -1.744474   -6.477975   -3.70399 H        1 UNL1     0.2922
     47 H         -0.39694   -2.457673   -1.701365 H        1 UNL1     0.2126
     48 H         -0.102535   -0.898703   2.640001 H        1 UNL1     0.2101
     49 H         2.828484   -0.296067   -0.016182 H        1 UNL1     0.2100
     50 H         1.825384   -2.559723   3.375243 H        1 UNL1     0.2102
@<TRIPOS>BOND
     1     1     2    1
     2     1     6    1
     3     2     3    1
     4     3     4    1
     5     3    29    1
     6     3    33    1
     7     4     5    1
     8     5     6    1
     9     5     7    1
    10     5    35    1
    11     7     8    1
    12     8     9   ar
    13     8    13   ar
    14     9    10   ar
    15     9    36    1
    16    10    11   ar
    17    10    26    1
    18    11    12   ar
    19    11    14    1
    20    12    13   ar
    21    12    17    1
    22    13    37    1
    23    14    15    1
    24    14    25    2
    25    15    16    1
    26    15    38    1
    27    15    39    1
    28    16    17    1
    29    16    18    1
    30    16    40    1
    31    18    19   ar
    32    18    23   ar
    33    19    20   ar
    34    19    41    1
    35    20    21   ar
    36    20    42    1
    37    21    22   ar
    38    21    24    1
    39    22    23   ar
    40    22    43    1
    41    23    44    1
    42    24    45    1
    43    26    46    1
    44    27    47    1
    45    28    48    1
    46    29    49    1
    47    30    50    1
    48     1    31    1
    49     1    27    1
    50     2    32    1
    51     2    28    1
    52     4    34    1
    53     4    30    1
