@<TRIPOS>MOLECULE
*****
 50 53 0 0 0
SMALL
GASTEIGER

@<TRIPOS>ATOM
     1 C         -0.333494   -1.328685   1.70123 C.3        1 UNL1     0.1889
     2 C         -0.463334   -0.975074   0.195228 C.3        1 UNL1     0.1342
     3 C         -1.904041   -0.961096   -0.338281 C.3        1 UNL1     0.1174
     4 C         -2.791395   -2.019847   0.321088 C.3        1 UNL1     0.1456
     5 C         -2.640134   -2.045894   1.853016 C.3        1 UNL1     0.2326
     6 O         -1.275502   -2.265274   2.203044 O.3        1 UNL1     -0.3076
     7 O         -3.214217   -0.898599   2.505293 O.3        1 UNL1     -0.4605
     8 C         -3.724203   -1.114054   3.772977 C.ar        1 UNL1     0.1310
     9 C         -4.541381   -2.186539   4.146201 C.ar        1 UNL1     0.0226
     10 C         -4.994561   -2.326982   5.463321 C.ar        1 UNL1     0.1343
     11 C         -4.621644   -1.410403   6.44549 C.ar        1 UNL1     0.1007
     12 C         -3.839642   -0.312793   6.076018 C.ar        1 UNL1     0.1389
     13 C         -3.386278   -0.170365   4.751025 C.ar        1 UNL1     0.0229
     14 C         -5.002535   -1.55638   7.869487 C.2        1 UNL1     0.1740
     15 C         -4.332972   -0.608921   8.821095 C.3        1 UNL1     0.0520
     16 C         -4.262609   0.763205   8.165139 C.3        1 UNL1     0.1322
     17 O         -3.503971   0.706163   6.937017 O.3        1 UNL1     -0.4828
     18 C         -5.621334   1.456665   8.039827 C.ar        1 UNL1     -0.0067
     19 C         -5.999911   2.020136   6.80395 C.ar        1 UNL1     -0.0516
     20 C         -7.214667   2.7026   6.667669 C.ar        1 UNL1     -0.0198
     21 C         -8.054355   2.83451   7.75916 C.ar        1 UNL1     0.1169
     22 C         -7.724568   2.261692   8.980618 C.ar        1 UNL1     -0.0198
     23 C         -6.518367   1.563284   9.112375 C.ar        1 UNL1     -0.0516
     24 O         -9.211521   3.538414   7.598268 O.3        1 UNL1     -0.5068
     25 O         -5.752008   -2.437643   8.281981 O.2        1 UNL1     -0.2917
     26 O         -5.789686   -3.394797   5.761869 O.3        1 UNL1     -0.5058
     27 O         -0.227379   -0.190871   2.542007 O.3        1 UNL1     -0.3648
     28 O         0.266509   -1.953852   -0.56768 O.3        1 UNL1     -0.3841
     29 O         -2.460354   0.352978   -0.261741 O.3        1 UNL1     -0.3863
     30 O         -2.444867   -3.320748   -0.20166 O.3        1 UNL1     -0.3829
     31 H         0.626699   -1.842431   1.820281 H        1 UNL1     0.0937
     32 H         0.0   0.0   0.0 H        1 UNL1     0.0671
     33 H         -1.867008   -1.20027   -1.410263 H        1 UNL1     0.0649
     34 H         -3.841307   -1.840499   0.064338 H        1 UNL1     0.0683
     35 H         -3.195696   -2.941391   2.15849 H        1 UNL1     0.1085
     36 H         -4.820356   -2.962816   3.442149 H        1 UNL1     0.0691
     37 H         -2.779575   0.693697   4.488727 H        1 UNL1     0.0691
     38 H         -3.330932   -0.999866   9.027501 H        1 UNL1     0.0385
     39 H         -4.893186   -0.589737   9.762142 H        1 UNL1     0.0385
     40 H         -3.667249   1.407742   8.825926 H        1 UNL1     0.0789
     41 H         -5.354139   1.938182   5.934517 H        1 UNL1     0.0623
     42 H         -7.489879   3.142965   5.7125 H        1 UNL1     0.0654
     43 H         -8.381741   2.346036   9.837893 H        1 UNL1     0.0654
     44 H         -6.297591   1.119477   10.078366 H        1 UNL1     0.0623
     45 H         -8.984803   4.445871   7.337813 H        1 UNL1     0.2921
     46 H         -5.386244   -3.907862   6.47979 H        1 UNL1     0.2922
     47 H         0.516245   0.362238   2.264602 H        1 UNL1     0.2126
     48 H         1.199305   -1.889429   -0.285769 H        1 UNL1     0.2101
     49 H         -2.020848   0.935205   -0.901772 H        1 UNL1     0.2100
     50 H         -2.677932   -3.335237   -1.153071 H        1 UNL1     0.2102
@<TRIPOS>BOND
     1     1     2    1
     2     1     6    1
     3     2     3    1
     4     3     4    1
     5     3    29    1
     6     3    33    1
     7     4     5    1
     8     5     6    1
     9     5     7    1
    10     5    35    1
    11     7     8    1
    12     8     9   ar
    13     8    13   ar
    14     9    10   ar
    15     9    36    1
    16    10    11   ar
    17    10    26    1
    18    11    12   ar
    19    11    14    1
    20    12    13   ar
    21    12    17    1
    22    13    37    1
    23    14    15    1
    24    14    25    2
    25    15    16    1
    26    15    38    1
    27    15    39    1
    28    16    17    1
    29    16    18    1
    30    16    40    1
    31    18    19   ar
    32    18    23   ar
    33    19    20   ar
    34    19    41    1
    35    20    21   ar
    36    20    42    1
    37    21    22   ar
    38    21    24    1
    39    22    23   ar
    40    22    43    1
    41    23    44    1
    42    24    45    1
    43    26    46    1
    44    27    47    1
    45    28    48    1
    46    29    49    1
    47    30    50    1
    48     1    31    1
    49     1    27    1
    50     2    32    1
    51     2    28    1
    52     4    34    1
    53     4    30    1
