@<TRIPOS>MOLECULE
*****
 50 53 0 0 0
SMALL
GASTEIGER

@<TRIPOS>ATOM
     1 C         -0.216332   -1.187043   1.820696 C.3        1 UNL1     0.1889
     2 C         -0.523696   -0.907601   0.324909 C.3        1 UNL1     0.1342
     3 C         -2.017288   -0.770711   -0.00812 C.3        1 UNL1     0.1174
     4 C         -2.900889   -1.689949   0.838855 C.3        1 UNL1     0.1456
     5 C         -2.536821   -1.645025   2.334115 C.3        1 UNL1     0.2326
     6 O         -1.164246   -1.98813   2.510706 O.3        1 UNL1     -0.3076
     7 O         -2.897866   -0.408036   2.975071 O.3        1 UNL1     -0.4605
     8 C         -3.241608   -0.495847   4.312105 C.ar        1 UNL1     0.1310
     9 C         -4.098414   -1.452319   4.867394 C.ar        1 UNL1     0.0226
     10 C         -4.371867   -1.468921   6.240293 C.ar        1 UNL1     0.1343
     11 C         -3.775815   -0.543186   7.095616 C.ar        1 UNL1     0.1007
     12 C         -2.950675   0.442187   6.547008 C.ar        1 UNL1     0.1389
     13 C         -2.677963   0.460294   5.166164 C.ar        1 UNL1     0.0229
     14 C         -3.963449   -0.566935   8.564759 C.2        1 UNL1     0.1740
     15 C         -3.076495   0.356121   9.347592 C.3        1 UNL1     0.0520
     16 C         -2.966174   1.67361   8.592602 C.3        1 UNL1     0.1322
     17 O         -2.39849   1.466663   7.280361 O.3        1 UNL1     -0.4828
     18 C         -4.254675   2.499671   8.603291 C.ar        1 UNL1     -0.0067
     19 C         -4.746236   3.031774   7.393561 C.ar        1 UNL1     -0.0516
     20 C         -5.895508   3.831016   7.374849 C.ar        1 UNL1     -0.0198
     21 C         -6.556551   4.110908   8.557435 C.ar        1 UNL1     0.1169
     22 C         -6.116   3.573922   9.760098 C.ar        1 UNL1     -0.0198
     23 C         -4.97735   2.759513   9.776584 C.ar        1 UNL1     -0.0516
     24 O         -7.650445   4.923968   8.505191 O.3        1 UNL1     -0.5068
     25 O         -4.729323   -1.338571   9.136161 O.2        1 UNL1     -0.2917
     26 O         -5.217077   -2.427332   6.71847 O.3        1 UNL1     -0.5058
     27 O         0.118506   -0.021138   2.556451 O.3        1 UNL1     -0.3648
     28 O         -0.008513   -2.000147   -0.458441 O.3        1 UNL1     -0.3841
     29 O         -2.426358   0.597301   0.049629 O.3        1 UNL1     -0.3863
     30 O         -2.760567   -3.047871   0.367636 O.3        1 UNL1     -0.3829
     31 H         0.696355   -1.79244   1.844716 H        1 UNL1     0.0937
     32 H         0.0   0.0   0.0 H        1 UNL1     0.0671
     33 H         -2.156388   -1.07287   -1.055532 H        1 UNL1     0.0649
     34 H         -3.9541   -1.414776   0.714645 H        1 UNL1     0.0683
     35 H         -3.127951   -2.457567   2.774819 H        1 UNL1     0.1085
     36 H         -4.548809   -2.233046   4.264294 H        1 UNL1     0.0691
     37 H         -2.03312   1.238566   4.763715 H        1 UNL1     0.0691
     38 H         -2.098325   -0.127045   9.443831 H        1 UNL1     0.0385
     39 H         -3.4931   0.488102   10.351983 H        1 UNL1     0.0385
     40 H         -2.22311   2.287404   9.119511 H        1 UNL1     0.0789
     41 H         -4.240163   2.834233   6.453073 H        1 UNL1     0.0623
     42 H         -6.257821   4.245256   6.437221 H        1 UNL1     0.0654
     43 H         -6.634779   3.774383   10.689934 H        1 UNL1     0.0654
     44 H         -4.667486   2.348233   10.732448 H        1 UNL1     0.0623
     45 H         -7.374969   5.786581   8.154866 H        1 UNL1     0.2921
     46 H         -4.767999   -2.939006   7.409796 H        1 UNL1     0.2922
     47 H         0.865398   0.433191   2.142207 H        1 UNL1     0.2126
     48 H         0.956756   -2.018998   -0.311355 H        1 UNL1     0.2101
     49 H         -2.027737   1.092194   -0.68384 H        1 UNL1     0.2100
     50 H         -3.126706   -3.091413   -0.539975 H        1 UNL1     0.2102
@<TRIPOS>BOND
     1     1     2    1
     2     1     6    1
     3     2     3    1
     4     3     4    1
     5     3    29    1
     6     3    33    1
     7     4     5    1
     8     5     6    1
     9     5     7    1
    10     5    35    1
    11     7     8    1
    12     8     9   ar
    13     8    13   ar
    14     9    10   ar
    15     9    36    1
    16    10    11   ar
    17    10    26    1
    18    11    12   ar
    19    11    14    1
    20    12    13   ar
    21    12    17    1
    22    13    37    1
    23    14    15    1
    24    14    25    2
    25    15    16    1
    26    15    38    1
    27    15    39    1
    28    16    17    1
    29    16    18    1
    30    16    40    1
    31    18    19   ar
    32    18    23   ar
    33    19    20   ar
    34    19    41    1
    35    20    21   ar
    36    20    42    1
    37    21    22   ar
    38    21    24    1
    39    22    23   ar
    40    22    43    1
    41    23    44    1
    42    24    45    1
    43    26    46    1
    44    27    47    1
    45    28    48    1
    46    29    49    1
    47    30    50    1
    48     1    31    1
    49     1    27    1
    50     2    32    1
    51     2    28    1
    52     4    34    1
    53     4    30    1
