@<TRIPOS>MOLECULE
*****
 50 53 0 0 0
SMALL
GASTEIGER

@<TRIPOS>ATOM
     1 C         0.401971   1.509102   1.527034 C.3        1 UNL1     0.1889
     2 C         0.236828   1.070163   0.047169 C.3        1 UNL1     0.1342
     3 C         1.454694   1.353695   -0.845511 C.3        1 UNL1     0.1174
     4 C         2.182752   2.64489   -0.463589 C.3        1 UNL1     0.1456
     5 C         2.416686   2.763964   1.053467 C.3        1 UNL1     0.2326
     6 O         1.172576   2.681719   1.745056 O.3        1 UNL1     -0.3076
     7 O         3.404666   1.845414   1.554948 O.3        1 UNL1     -0.4605
     8 C         3.418794   1.65907   2.92557 C.ar        1 UNL1     0.1310
     9 C         2.311628   1.783496   3.771739 C.ar        1 UNL1     0.0226
     10 C         2.42404   1.557184   5.14871 C.ar        1 UNL1     0.1343
     11 C         3.642407   1.17733   5.710076 C.ar        1 UNL1     0.1007
     12 C         4.764191   1.08983   4.881385 C.ar        1 UNL1     0.1389
     13 C         4.651476   1.320013   3.497282 C.ar        1 UNL1     0.0229
     14 C         3.799024   0.844357   7.144912 C.2        1 UNL1     0.1740
     15 C         5.118105   0.24264   7.531579 C.3        1 UNL1     0.0520
     16 C         6.219746   0.966887   6.770127 C.3        1 UNL1     0.1322
     17 O         6.033165   0.829435   5.344166 O.3        1 UNL1     -0.4828
     18 C         6.454219   2.40338   7.24366 C.ar        1 UNL1     -0.0067
     19 C         7.66395   3.050894   6.918867 C.ar        1 UNL1     -0.0516
     20 C         7.930186   4.347054   7.376086 C.ar        1 UNL1     -0.0198
     21 C         7.000028   5.002105   8.163195 C.ar        1 UNL1     0.1169
     22 C         5.785447   4.403548   8.472003 C.ar        1 UNL1     -0.0198
     23 C         5.511175   3.114515   7.999537 C.ar        1 UNL1     -0.0516
     24 O         7.310181   6.248748   8.621549 O.3        1 UNL1     -0.5068
     25 O         2.897374   0.967097   7.969804 O.2        1 UNL1     -0.2917
     26 O         1.306476   1.69624   5.918969 O.3        1 UNL1     -0.5058
     27 O         0.798435   0.454107   2.38877 O.3        1 UNL1     -0.3648
     28 O         -0.882033   1.779267   -0.516769 O.3        1 UNL1     -0.3841
     29 O         2.324444   0.220754   -0.891443 O.3        1 UNL1     -0.3863
     30 O         1.401258   3.777115   -0.902934 O.3        1 UNL1     -0.3829
     31 H         -0.595502   1.788217   1.883716 H        1 UNL1     0.0937
     32 H         0.0   0.0   -0.0 H        1 UNL1     0.0671
     33 H         1.092656   1.485507   -1.874721 H        1 UNL1     0.0649
     34 H         3.145722   2.699009   -0.983359 H        1 UNL1     0.0683
     35 H         2.787261   3.788375   1.184368 H        1 UNL1     0.1085
     36 H         1.325213   2.021256   3.388885 H        1 UNL1     0.0691
     37 H         5.540062   1.24659   2.873972 H        1 UNL1     0.0691
     38 H         5.087796   -0.819712   7.266974 H        1 UNL1     0.0385
     39 H         5.244215   0.321376   8.616786 H        1 UNL1     0.0385
     40 H         7.158878   0.435917   6.976576 H        1 UNL1     0.0789
     41 H         8.414132   2.554579   6.31014 H        1 UNL1     0.0623
     42 H         8.871748   4.831112   7.128776 H        1 UNL1     0.0654
     43 H         5.043641   4.913344   9.075113 H        1 UNL1     0.0654
     44 H         4.547868   2.68145   8.251213 H        1 UNL1     0.0623
     45 H         8.096043   6.563582   8.146137 H        1 UNL1     0.2921
     46 H         0.977409   2.60641   5.850275 H        1 UNL1     0.2922
     47 H         0.391517   0.562349   3.259724 H        1 UNL1     0.2126
     48 H         -0.56366   2.193136   -1.342047 H        1 UNL1     0.2101
     49 H         1.993846   -0.473316   -0.299188 H        1 UNL1     0.2100
     50 H         1.995693   4.381439   -1.394006 H        1 UNL1     0.2102
@<TRIPOS>BOND
     1     1     2    1
     2     1     6    1
     3     2     3    1
     4     3     4    1
     5     3    29    1
     6     3    33    1
     7     4     5    1
     8     5     6    1
     9     5     7    1
    10     5    35    1
    11     7     8    1
    12     8     9   ar
    13     8    13   ar
    14     9    10   ar
    15     9    36    1
    16    10    11   ar
    17    10    26    1
    18    11    12   ar
    19    11    14    1
    20    12    13   ar
    21    12    17    1
    22    13    37    1
    23    14    15    1
    24    14    25    2
    25    15    16    1
    26    15    38    1
    27    15    39    1
    28    16    17    1
    29    16    18    1
    30    16    40    1
    31    18    19   ar
    32    18    23   ar
    33    19    20   ar
    34    19    41    1
    35    20    21   ar
    36    20    42    1
    37    21    22   ar
    38    21    24    1
    39    22    23   ar
    40    22    43    1
    41    23    44    1
    42    24    45    1
    43    26    46    1
    44    27    47    1
    45    28    48    1
    46    29    49    1
    47    30    50    1
    48     1    31    1
    49     1    27    1
    50     2    32    1
    51     2    28    1
    52     4    34    1
    53     4    30    1
