@<TRIPOS>MOLECULE
*****
 50 53 0 0 0
SMALL
GASTEIGER

@<TRIPOS>ATOM
     1 C         -0.332281   -1.328201   1.701845 C.3        1 UNL1     0.1889
     2 C         -0.462562   -0.975345   0.195704 C.3        1 UNL1     0.1342
     3 C         -1.90334   -0.962706   -0.337647 C.3        1 UNL1     0.1174
     4 C         -2.789806   -2.021852   0.322282 C.3        1 UNL1     0.1456
     5 C         -2.638352   -2.047116   1.854205 C.3        1 UNL1     0.2326
     6 O         -1.273512   -2.265295   2.204173 O.3        1 UNL1     -0.3076
     7 O         -3.213243   -0.89998   2.506048 O.3        1 UNL1     -0.4605
     8 C         -3.723344   -1.115381   3.773694 C.ar        1 UNL1     0.1310
     9 C         -3.504234   -0.294969   4.885546 C.ar        1 UNL1     0.0226
     10 C         -4.080449   -0.589366   6.127001 C.ar        1 UNL1     0.1343
     11 C         -4.909911   -1.699375   6.280995 C.ar        1 UNL1     0.1007
     12 C         -5.103047   -2.548787   5.1883 C.ar        1 UNL1     0.1389
     13 C         -4.521418   -2.254008   3.940805 C.ar        1 UNL1     0.0229
     14 C         -5.611615   -2.010767   7.547803 C.2        1 UNL1     0.1740
     15 C         -6.632852   -3.107506   7.471727 C.3        1 UNL1     0.0520
     16 C         -6.082607   -4.21767   6.58701 C.3        1 UNL1     0.1322
     17 O         -5.811709   -3.725856   5.255919 O.3        1 UNL1     -0.4828
     18 C         -4.92867   -4.997077   7.222366 C.ar        1 UNL1     -0.0067
     19 C         -3.753687   -5.225118   6.476962 C.ar        1 UNL1     -0.0516
     20 C         -2.69849   -5.974521   7.010738 C.ar        1 UNL1     -0.0198
     21 C         -2.808766   -6.506272   8.283101 C.ar        1 UNL1     0.1169
     22 C         -3.939534   -6.270797   9.054304 C.ar        1 UNL1     -0.0198
     23 C         -4.987269   -5.505907   8.52776 C.ar        1 UNL1     -0.0516
     24 O         -1.77645   -7.262516   8.755139 O.3        1 UNL1     -0.5068
     25 O         -5.446282   -1.375777   8.58604 O.2        1 UNL1     -0.2917
     26 O         -3.826399   0.250453   7.171867 O.3        1 UNL1     -0.5058
     27 O         -0.226945   -0.189941   2.542115 O.3        1 UNL1     -0.3648
     28 O         0.267946   -1.953893   -0.566861 O.3        1 UNL1     -0.3841
     29 O         -2.460654   0.350973   -0.261616 O.3        1 UNL1     -0.3863
     30 O         -2.442337   -3.322713   -0.199939 O.3        1 UNL1     -0.3829
     31 H         0.62832   -1.841157   1.82101 H        1 UNL1     0.0937
     32 H         0.0   0.0   0.0 H        1 UNL1     0.0671
     33 H         -1.866244   -1.202317   -1.409529 H        1 UNL1     0.0649
     34 H         -3.839884   -1.843422   0.065573 H        1 UNL1     0.0683
     35 H         -3.193191   -2.942908   2.16013 H        1 UNL1     0.1085
     36 H         -2.914914   0.612848   4.817048 H        1 UNL1     0.0691
     37 H         -4.68627   -2.931859   3.106039 H        1 UNL1     0.0691
     38 H         -7.546994   -2.679891   7.046266 H        1 UNL1     0.0385
     39 H         -6.858614   -3.458611   8.484414 H        1 UNL1     0.0385
     40 H         -6.888247   -4.951599   6.449849 H        1 UNL1     0.0789
     41 H         -3.646381   -4.826189   5.472476 H        1 UNL1     0.0623
     42 H         -1.802487   -6.153427   6.421516 H        1 UNL1     0.0654
     43 H         -4.030051   -6.669844   10.057538 H        1 UNL1     0.0654
     44 H         -5.851315   -5.333009   9.162091 H        1 UNL1     0.0623
     45 H         -1.661823   -8.026391   8.16686 H        1 UNL1     0.2921
     46 H         -4.664416   0.579709   7.533433 H        1 UNL1     0.2922
     47 H         0.516116   0.363708   2.264279 H        1 UNL1     0.2126
     48 H         1.200844   -1.888143   -0.285595 H        1 UNL1     0.2101
     49 H         -2.021668   0.933259   -0.901949 H        1 UNL1     0.2100
     50 H         -2.675498   -3.337795   -1.151318 H        1 UNL1     0.2102
@<TRIPOS>BOND
     1     1     2    1
     2     1     6    1
     3     2     3    1
     4     3     4    1
     5     3    29    1
     6     3    33    1
     7     4     5    1
     8     5     6    1
     9     5     7    1
    10     5    35    1
    11     7     8    1
    12     8     9   ar
    13     8    13   ar
    14     9    10   ar
    15     9    36    1
    16    10    11   ar
    17    10    26    1
    18    11    12   ar
    19    11    14    1
    20    12    13   ar
    21    12    17    1
    22    13    37    1
    23    14    15    1
    24    14    25    2
    25    15    16    1
    26    15    38    1
    27    15    39    1
    28    16    17    1
    29    16    18    1
    30    16    40    1
    31    18    19   ar
    32    18    23   ar
    33    19    20   ar
    34    19    41    1
    35    20    21   ar
    36    20    42    1
    37    21    22   ar
    38    21    24    1
    39    22    23   ar
    40    22    43    1
    41    23    44    1
    42    24    45    1
    43    26    46    1
    44    27    47    1
    45    28    48    1
    46    29    49    1
    47    30    50    1
    48     1    31    1
    49     1    27    1
    50     2    32    1
    51     2    28    1
    52     4    34    1
    53     4    30    1
