@<TRIPOS>MOLECULE
*****
 50 53 0 0 0
SMALL
GASTEIGER

@<TRIPOS>ATOM
     1 C         -0.33578   -1.330379   1.699455 C.3        1 UNL1     0.1889
     2 C         -0.463955   -0.975082   0.193708 C.3        1 UNL1     0.1342
     3 C         -1.904121   -0.959896   -0.34123 C.3        1 UNL1     0.1174
     4 C         -2.792598   -2.018971   0.316103 C.3        1 UNL1     0.1456
     5 C         -2.642885   -2.046741   1.848153 C.3        1 UNL1     0.2326
     6 O         -1.2787   -2.267097   2.199311 O.3        1 UNL1     -0.3076
     7 O         -3.217121   -0.899902   2.501096 O.3        1 UNL1     -0.4605
     8 C         -3.728896   -1.116609   3.767844 C.ar        1 UNL1     0.1310
     9 C         -4.547217   -2.189054   4.138673 C.ar        1 UNL1     0.0226
     10 C         -5.002206   -2.330846   5.455025 C.ar        1 UNL1     0.1343
     11 C         -4.630016   -1.415709   6.438813 C.ar        1 UNL1     0.1007
     12 C         -3.846861   -0.318123   6.07172 C.ar        1 UNL1     0.1389
     13 C         -3.391676   -0.174336   4.747499 C.ar        1 UNL1     0.0229
     14 C         -5.012858   -1.563211   7.862129 C.2        1 UNL1     0.1740
     15 C         -4.343964   -0.617337   8.815781 C.3        1 UNL1     0.0520
     16 C         -4.271904   0.755554   8.161614 C.3        1 UNL1     0.1322
     17 O         -3.511695   0.699565   6.934416 O.3        1 UNL1     -0.4828
     18 C         -5.630041   1.449999   8.035382 C.ar        1 UNL1     -0.0067
     19 C         -6.005868   2.016861   6.800216 C.ar        1 UNL1     -0.0516
     20 C         -7.220019   2.70027   6.663275 C.ar        1 UNL1     -0.0198
     21 C         -8.061829   2.829755   7.75342 C.ar        1 UNL1     0.1169
     22 C         -7.734768   2.253608   8.974044 C.ar        1 UNL1     -0.0198
     23 C         -6.529171   1.554272   9.106404 C.ar        1 UNL1     -0.0516
     24 O         -9.218331   3.534638   7.592039 O.3        1 UNL1     -0.5068
     25 O         -5.763408   -2.444523   8.272553 O.2        1 UNL1     -0.2917
     26 O         -5.798373   -3.398542   5.751213 O.3        1 UNL1     -0.5058
     27 O         -0.230012   -0.193522   2.54157 O.3        1 UNL1     -0.3648
     28 O         0.266225   -1.953353   -0.569527 O.3        1 UNL1     -0.3841
     29 O         -2.459936   0.354338   -0.263825 O.3        1 UNL1     -0.3863
     30 O         -2.446114   -3.319457   -0.207705 O.3        1 UNL1     -0.3829
     31 H         0.624068   -1.844674   1.818913 H        1 UNL1     0.0937
     32 H         0.0   0.0   0.0 H        1 UNL1     0.0671
     33 H         -1.866117   -1.197926   -1.413432 H        1 UNL1     0.0649
     34 H         -3.842173   -1.838885   0.058495 H        1 UNL1     0.0683
     35 H         -3.199144   -2.942326   2.1521 H        1 UNL1     0.1085
     36 H         -4.825744   -2.96429   3.433299 H        1 UNL1     0.0691
     37 H         -2.784103   0.689678   4.487062 H        1 UNL1     0.0691
     38 H         -3.342433   -1.00915   9.023015 H        1 UNL1     0.0385
     39 H         -4.905397   -0.598973   9.756118 H        1 UNL1     0.0385
     40 H         -3.677017   1.39891   8.823974 H        1 UNL1     0.0789
     41 H         -5.358394   1.93685   5.931869 H        1 UNL1     0.0623
     42 H         -7.493103   3.143247   5.708703 H        1 UNL1     0.0654
     43 H         -8.393617   2.336046   9.830218 H        1 UNL1     0.0654
     44 H         -6.310546   1.10785   10.071679 H        1 UNL1     0.0623
     45 H         -8.990653   4.442658   7.334396 H        1 UNL1     0.2921
     46 H         -5.396184   -3.91274   6.469027 H        1 UNL1     0.2922
     47 H         0.514026   0.35965   2.265402 H        1 UNL1     0.2126
     48 H         1.198887   -1.889155   -0.287122 H        1 UNL1     0.2101
     49 H         -2.019533   0.937065   -0.902785 H        1 UNL1     0.2100
     50 H         -2.678231   -3.332815   -1.159364 H        1 UNL1     0.2102
@<TRIPOS>BOND
     1     1     2    1
     2     1     6    1
     3     2     3    1
     4     3     4    1
     5     3    29    1
     6     3    33    1
     7     4     5    1
     8     5     6    1
     9     5     7    1
    10     5    35    1
    11     7     8    1
    12     8     9   ar
    13     8    13   ar
    14     9    10   ar
    15     9    36    1
    16    10    11   ar
    17    10    26    1
    18    11    12   ar
    19    11    14    1
    20    12    13   ar
    21    12    17    1
    22    13    37    1
    23    14    15    1
    24    14    25    2
    25    15    16    1
    26    15    38    1
    27    15    39    1
    28    16    17    1
    29    16    18    1
    30    16    40    1
    31    18    19   ar
    32    18    23   ar
    33    19    20   ar
    34    19    41    1
    35    20    21   ar
    36    20    42    1
    37    21    22   ar
    38    21    24    1
    39    22    23   ar
    40    22    43    1
    41    23    44    1
    42    24    45    1
    43    26    46    1
    44    27    47    1
    45    28    48    1
    46    29    49    1
    47    30    50    1
    48     1    31    1
    49     1    27    1
    50     2    32    1
    51     2    28    1
    52     4    34    1
    53     4    30    1
