@<TRIPOS>MOLECULE
*****
 50 53 0 0 0
SMALL
GASTEIGER

@<TRIPOS>ATOM
     1 C         -0.330077   -1.327082   1.703146 C.3        1 UNL1     0.1889
     2 C         -0.461519   -0.975623   0.19678 C.3        1 UNL1     0.1342
     3 C         -1.9026   -0.964816   -0.335795 C.3        1 UNL1     0.1174
     4 C         -2.787688   -2.024254   0.325513 C.3        1 UNL1     0.1456
     5 C         -2.635373   -2.04808   1.857373 C.3        1 UNL1     0.2326
     6 O         -1.270134   -2.264654   2.206779 O.3        1 UNL1     -0.3076
     7 O         -3.211009   -0.900946   2.508562 O.3        1 UNL1     -0.4605
     8 C         -3.719787   -1.115659   3.776857 C.ar        1 UNL1     0.1310
     9 C         -4.532021   -2.190941   4.152815 C.ar        1 UNL1     0.0226
     10 C         -4.984326   -2.330267   5.470355 C.ar        1 UNL1     0.1343
     11 C         -4.615401   -1.409642   6.450245 C.ar        1 UNL1     0.1007
     12 C         -3.838455   -0.309386   6.077984 C.ar        1 UNL1     0.1389
     13 C         -3.385977   -0.168093   4.752567 C.ar        1 UNL1     0.0229
     14 C         -4.995372   -1.553916   7.87466 C.2        1 UNL1     0.1740
     15 C         -4.32995   -0.601138   8.823858 C.3        1 UNL1     0.0520
     16 C         -4.265933   0.769709   8.164587 C.3        1 UNL1     0.1322
     17 O         -3.507261   0.713155   6.936464 O.3        1 UNL1     -0.4828
     18 C         -5.627815   1.456689   8.037862 C.ar        1 UNL1     -0.0067
     19 C         -6.009214   2.015355   6.800671 C.ar        1 UNL1     -0.0516
     20 C         -7.227081   2.691966   6.66297 C.ar        1 UNL1     -0.0198
     21 C         -8.067118   2.82279   7.754323 C.ar        1 UNL1     0.1169
     22 C         -7.73447   2.254521   8.977129 C.ar        1 UNL1     -0.0198
     23 C         -6.525086   1.561917   9.110348 C.ar        1 UNL1     -0.0516
     24 O         -9.227498   3.521039   7.591944 O.3        1 UNL1     -0.5068
     25 O         -5.740763   -2.437576   8.289416 O.2        1 UNL1     -0.2917
     26 O         -5.774542   -3.400959   5.771623 O.3        1 UNL1     -0.5058
     27 O         -0.225375   -0.188012   2.542399 O.3        1 UNL1     -0.3648
     28 O         0.269512   -1.954113   -0.565359 O.3        1 UNL1     -0.3841
     29 O         -2.461133   0.348392   -0.260567 O.3        1 UNL1     -0.3863
     30 O         -2.439256   -3.325222   -0.195801 O.3        1 UNL1     -0.3829
     31 H         0.631081   -1.839016   1.822219 H        1 UNL1     0.0937
     32 H         0.0   0.0   0.0 H        1 UNL1     0.0671
     33 H         -1.865859   -1.205296   -1.407494 H        1 UNL1     0.0649
     34 H         -3.838077   -1.847049   0.069227 H        1 UNL1     0.0683
     35 H         -3.189185   -2.944145   2.164358 H        1 UNL1     0.1085
     36 H         -4.807593   -2.97017   3.450688 H        1 UNL1     0.0691
     37 H         -2.78325   0.69808   4.488075 H        1 UNL1     0.0691
     38 H         -3.326108   -0.987031   9.031017 H        1 UNL1     0.0385
     39 H         -4.890079   -0.582231   9.764962 H        1 UNL1     0.0385
     40 H         -3.673389   1.418532   8.823708 H        1 UNL1     0.0789
     41 H         -5.363269   1.934161   5.931296 H        1 UNL1     0.0623
     42 H         -7.504496   3.128695   5.70677 H        1 UNL1     0.0654
     43 H         -8.391829   2.338023   9.834343 H        1 UNL1     0.0654
     44 H         -6.302088   1.121525   10.077391 H        1 UNL1     0.0623
     45 H         -9.971837   2.927571   7.782924 H        1 UNL1     0.2921
     46 H         -5.367998   -3.911184   6.489818 H        1 UNL1     0.2922
     47 H         0.517109   0.366026   2.263795 H        1 UNL1     0.2126
     48 H         1.20232   -1.887963   -0.28389 H        1 UNL1     0.2101
     49 H         -2.022995   0.93058   -0.901571 H        1 UNL1     0.2100
     50 H         -2.672922   -3.341331   -1.147039 H        1 UNL1     0.2102
@<TRIPOS>BOND
     1     1     2    1
     2     1     6    1
     3     2     3    1
     4     3     4    1
     5     3    29    1
     6     3    33    1
     7     4     5    1
     8     5     6    1
     9     5     7    1
    10     5    35    1
    11     7     8    1
    12     8     9   ar
    13     8    13   ar
    14     9    10   ar
    15     9    36    1
    16    10    11   ar
    17    10    26    1
    18    11    12   ar
    19    11    14    1
    20    12    13   ar
    21    12    17    1
    22    13    37    1
    23    14    15    1
    24    14    25    2
    25    15    16    1
    26    15    38    1
    27    15    39    1
    28    16    17    1
    29    16    18    1
    30    16    40    1
    31    18    19   ar
    32    18    23   ar
    33    19    20   ar
    34    19    41    1
    35    20    21   ar
    36    20    42    1
    37    21    22   ar
    38    21    24    1
    39    22    23   ar
    40    22    43    1
    41    23    44    1
    42    24    45    1
    43    26    46    1
    44    27    47    1
    45    28    48    1
    46    29    49    1
    47    30    50    1
    48     1    31    1
    49     1    27    1
    50     2    32    1
    51     2    28    1
    52     4    34    1
    53     4    30    1
