@<TRIPOS>MOLECULE
*****
 50 53 0 0 0
SMALL
GASTEIGER

@<TRIPOS>ATOM
     1 C         -0.389285   -1.380717   1.647083 C.3        1 UNL1     0.1889
     2 C         -0.49167   -0.968575   0.1539 C.3        1 UNL1     0.1342
     3 C         -1.925041   -0.895659   -0.394366 C.3        1 UNL1     0.1174
     4 C         -2.848311   -1.953304   0.215614 C.3        1 UNL1     0.1456
     5 C         -2.716015   -2.039764   1.747079 C.3        1 UNL1     0.2326
     6 O         -1.362029   -2.309044   2.10356 O.3        1 UNL1     -0.3076
     7 O         -3.266751   -0.901972   2.435149 O.3        1 UNL1     -0.4605
     8 C         -3.80799   -1.152002   3.683377 C.ar        1 UNL1     0.1310
     9 C         -3.867794   -2.404084   4.304677 C.ar        1 UNL1     0.0226
     10 C         -4.421877   -2.552614   5.581717 C.ar        1 UNL1     0.1343
     11 C         -4.908477   -1.447666   6.278962 C.ar        1 UNL1     0.1007
     12 C         -4.891606   -0.198772   5.652253 C.ar        1 UNL1     0.1389
     13 C         -4.336836   -0.050124   4.367121 C.ar        1 UNL1     0.0229
     14 C         -5.427617   -1.533893   7.663597 C.2        1 UNL1     0.1740
     15 C         -5.699129   -0.221322   8.338125 C.3        1 UNL1     0.0520
     16 C         -6.329121   0.721319   7.322008 C.3        1 UNL1     0.1322
     17 O         -5.441701   0.935704   6.202368 O.3        1 UNL1     -0.4828
     18 C         -7.760076   0.341513   6.933629 C.ar        1 UNL1     -0.0067
     19 C         -8.829758   1.16566   7.339555 C.ar        1 UNL1     -0.0516
     20 C         -10.153995   0.822454   7.041951 C.ar        1 UNL1     -0.0198
     21 C         -10.421568   -0.343411   6.346975 C.ar        1 UNL1     0.1169
     22 C         -9.387546   -1.158311   5.904736 C.ar        1 UNL1     -0.0198
     23 C         -8.062171   -0.805858   6.186184 C.ar        1 UNL1     -0.0516
     24 O         -11.72559   -0.664306   6.108324 O.3        1 UNL1     -0.5068
     25 O         -5.559912   -2.592964   8.271339 O.2        1 UNL1     -0.2917
     26 O         -4.451061   -3.801061   6.131366 O.3        1 UNL1     -0.5058
     27 O         -0.262611   -0.277899   2.530561 O.3        1 UNL1     -0.3648
     28 O         0.220604   -1.938214   -0.636778 O.3        1 UNL1     -0.3841
     29 O         -2.446691   0.429415   -0.275228 O.3        1 UNL1     -0.3863
     30 O         -2.530701   -3.243089   -0.351192 O.3        1 UNL1     -0.3829
     31 H         0.555266   -1.92452   1.757449 H        1 UNL1     0.0937
     32 H         0.0   0.0   0.0 H        1 UNL1     0.0671
     33 H         -1.88172   -1.09619   -1.47401 H        1 UNL1     0.0649
     34 H         -3.889897   -1.736037   -0.045719 H        1 UNL1     0.0683
     35 H         -3.299043   -2.930379   2.013089 H        1 UNL1     0.1085
     36 H         -3.455826   -3.292302   3.838338 H        1 UNL1     0.0691
     37 H         -4.336705   0.932667   3.900629 H        1 UNL1     0.0691
     38 H         -4.741929   0.169723   8.699205 H        1 UNL1     0.0385
     39 H         -6.348152   -0.390295   9.204148 H        1 UNL1     0.0385
     40 H         -6.409785   1.706517   7.800964 H        1 UNL1     0.0789
     41 H         -8.646581   2.081346   7.894187 H        1 UNL1     0.0623
     42 H         -10.970865   1.460109   7.370784 H        1 UNL1     0.0654
     43 H         -9.585027   -2.065791   5.346711 H        1 UNL1     0.0654
     44 H         -7.278764   -1.46026   5.816217 H        1 UNL1     0.0623
     45 H         -11.941655   -0.411465   5.196126 H        1 UNL1     0.2921
     46 H         -4.263197   -3.740767   7.081358 H        1 UNL1     0.2922
     47 H         0.580315   0.17355   2.383831 H        1 UNL1     0.2126
     48 H         -0.171299   -1.912265   -1.530909 H        1 UNL1     0.2101
     49 H         -3.002342   0.495281   0.517683 H        1 UNL1     0.2100
     50 H         -2.912105   -3.278368   -1.252857 H        1 UNL1     0.2102
@<TRIPOS>BOND
     1     1     2    1
     2     1     6    1
     3     2     3    1
     4     3     4    1
     5     3    29    1
     6     3    33    1
     7     4     5    1
     8     5     6    1
     9     5     7    1
    10     5    35    1
    11     7     8    1
    12     8     9   ar
    13     8    13   ar
    14     9    10   ar
    15     9    36    1
    16    10    11   ar
    17    10    26    1
    18    11    12   ar
    19    11    14    1
    20    12    13   ar
    21    12    17    1
    22    13    37    1
    23    14    15    1
    24    14    25    2
    25    15    16    1
    26    15    38    1
    27    15    39    1
    28    16    17    1
    29    16    18    1
    30    16    40    1
    31    18    19   ar
    32    18    23   ar
    33    19    20   ar
    34    19    41    1
    35    20    21   ar
    36    20    42    1
    37    21    22   ar
    38    21    24    1
    39    22    23   ar
    40    22    43    1
    41    23    44    1
    42    24    45    1
    43    26    46    1
    44    27    47    1
    45    28    48    1
    46    29    49    1
    47    30    50    1
    48     1    31    1
    49     1    27    1
    50     2    32    1
    51     2    28    1
    52     4    34    1
    53     4    30    1
