@<TRIPOS>MOLECULE
*****
 50 53 0 0 0
SMALL
GASTEIGER

@<TRIPOS>ATOM
     1 C         -1.291881   -0.999605   -1.450048 C.3        1 UNL1     0.1889
     2 C         0.073509   -0.810157   -0.736073 C.3        1 UNL1     0.1342
     3 C         1.255047   -0.527122   -1.676458 C.3        1 UNL1     0.1174
     4 C         1.139213   -1.263663   -3.013323 C.3        1 UNL1     0.1456
     5 C         -0.263107   -1.138772   -3.636431 C.3        1 UNL1     0.2326
     6 O         -1.24534   -1.624598   -2.724258 O.3        1 UNL1     -0.3076
     7 O         -0.554657   0.180527   -4.132183 O.3        1 UNL1     -0.4605
     8 C         -1.451612   0.248732   -5.183063 C.ar        1 UNL1     0.1310
     9 C         -1.257865   0.965919   -6.36856 C.ar        1 UNL1     0.0226
     10 C         -2.221217   0.958913   -7.384339 C.ar        1 UNL1     0.1343
     11 C         -3.392315   0.214567   -7.24899 C.ar        1 UNL1     0.1007
     12 C         -3.615522   -0.472599   -6.052843 C.ar        1 UNL1     0.1389
     13 C         -2.64791   -0.463259   -5.030556 C.ar        1 UNL1     0.0229
     14 C         -4.405131   0.104142   -8.324241 C.2        1 UNL1     0.1740
     15 C         -5.486529   -0.91073   -8.095852 C.3        1 UNL1     0.0520
     16 C         -5.900584   -0.852425   -6.631913 C.3        1 UNL1     0.1322
     17 O         -4.779755   -1.148415   -5.769822 O.3        1 UNL1     -0.4828
     18 C         -6.669585   0.41739   -6.259177 C.ar        1 UNL1     -0.0067
     19 C         -6.001087   1.458449   -5.582773 C.ar        1 UNL1     -0.0516
     20 C         -6.686009   2.612975   -5.185388 C.ar        1 UNL1     -0.0198
     21 C         -8.038108   2.735029   -5.451393 C.ar        1 UNL1     0.1169
     22 C         -8.716602   1.741594   -6.145345 C.ar        1 UNL1     -0.0198
     23 C         -8.027837   0.595098   -6.559118 C.ar        1 UNL1     -0.0516
     24 O         -8.679956   3.856931   -5.015769 O.3        1 UNL1     -0.5068
     25 O         -4.343068   0.731167   -9.378505 O.2        1 UNL1     -0.2917
     26 O         -1.971795   1.680147   -8.515354 O.3        1 UNL1     -0.5058
     27 O         -2.086327   0.175626   -1.471845 O.3        1 UNL1     -0.3648
     28 O         0.381165   -2.016279   -0.01266 O.3        1 UNL1     -0.3841
     29 O         1.45145   0.879471   -1.83474 O.3        1 UNL1     -0.3863
     30 O         1.433971   -2.662821   -2.810431 O.3        1 UNL1     -0.3829
     31 H         -1.868645   -1.703705   -0.840404 H        1 UNL1     0.0937
     32 H         0.0   0.0   0.0 H        1 UNL1     0.0671
     33 H         2.16794   -0.896089   -1.188389 H        1 UNL1     0.0649
     34 H         1.883922   -0.878169   -3.71845 H        1 UNL1     0.0683
     35 H         -0.239956   -1.837418   -4.482148 H        1 UNL1     0.1085
     36 H         -0.344252   1.51878   -6.557709 H        1 UNL1     0.0691
     37 H         -2.846219   -1.005439   -4.108489 H        1 UNL1     0.0691
     38 H         -5.077398   -1.893923   -8.351726 H        1 UNL1     0.0385
     39 H         -6.323113   -0.702024   -8.771387 H        1 UNL1     0.0385
     40 H         -6.603904   -1.67871   -6.461281 H        1 UNL1     0.0789
     41 H         -4.942017   1.382755   -5.354102 H        1 UNL1     0.0623
     42 H         -6.162003   3.403548   -4.653953 H        1 UNL1     0.0654
     43 H         -9.772065   1.833625   -6.372145 H        1 UNL1     0.0654
     44 H         -8.587005   -0.156246   -7.108353 H        1 UNL1     0.0623
     45 H         -8.76555   3.805813   -4.049965 H        1 UNL1     0.2921
     46 H         -2.564924   2.447348   -8.547196 H        1 UNL1     0.2922
     47 H         -3.011225   -0.048633   -1.645428 H        1 UNL1     0.2126
     48 H         1.097617   -2.462187   -0.504184 H        1 UNL1     0.2101
     49 H         2.400482   1.082279   -1.83434 H        1 UNL1     0.2100
     50 H         0.73838   -3.036485   -2.230568 H        1 UNL1     0.2102
@<TRIPOS>BOND
     1     1     2    1
     2     1     6    1
     3     2     3    1
     4     3     4    1
     5     3    29    1
     6     3    33    1
     7     4     5    1
     8     5     6    1
     9     5     7    1
    10     5    35    1
    11     7     8    1
    12     8     9   ar
    13     8    13   ar
    14     9    10   ar
    15     9    36    1
    16    10    11   ar
    17    10    26    1
    18    11    12   ar
    19    11    14    1
    20    12    13   ar
    21    12    17    1
    22    13    37    1
    23    14    15    1
    24    14    25    2
    25    15    16    1
    26    15    38    1
    27    15    39    1
    28    16    17    1
    29    16    18    1
    30    16    40    1
    31    18    19   ar
    32    18    23   ar
    33    19    20   ar
    34    19    41    1
    35    20    21   ar
    36    20    42    1
    37    21    22   ar
    38    21    24    1
    39    22    23   ar
    40    22    43    1
    41    23    44    1
    42    24    45    1
    43    26    46    1
    44    27    47    1
    45    28    48    1
    46    29    49    1
    47    30    50    1
    48     1    31    1
    49     1    27    1
    50     2    32    1
    51     2    28    1
    52     4    34    1
    53     4    30    1
