@<TRIPOS>MOLECULE
*****
 50 53 0 0 0
SMALL
GASTEIGER

@<TRIPOS>ATOM
     1 C         1.977977   0.149472   0.914368 C.3        1 UNL1     0.1889
     2 C         1.028293   -0.309299   -0.224742 C.3        1 UNL1     0.1342
     3 C         1.047143   -1.819579   -0.506099 C.3        1 UNL1     0.1174
     4 C         2.431556   -2.442564   -0.310127 C.3        1 UNL1     0.1456
     5 C         3.100861   -1.992856   1.001421 C.3        1 UNL1     0.2326
     6 O         3.195781   -0.57065   1.035914 O.3        1 UNL1     -0.3076
     7 O         2.485824   -2.547634   2.178396 O.3        1 UNL1     -0.4605
     8 C         3.34327   -2.875487   3.213203 C.ar        1 UNL1     0.1310
     9 C         3.901904   -4.139144   3.433203 C.ar        1 UNL1     0.0226
     10 C         4.775755   -4.367898   4.502763 C.ar        1 UNL1     0.1343
     11 C         5.131189   -3.331645   5.365136 C.ar        1 UNL1     0.1007
     12 C         4.547807   -2.075391   5.179998 C.ar        1 UNL1     0.1389
     13 C         3.667125   -1.846291   4.106059 C.ar        1 UNL1     0.0229
     14 C         6.114564   -3.497006   6.460482 C.2        1 UNL1     0.1740
     15 C         6.544211   -2.232058   7.143753 C.3        1 UNL1     0.0520
     16 C         5.323652   -1.338147   7.31439 C.3        1 UNL1     0.1322
     17 O         4.742681   -1.013297   6.032199 O.3        1 UNL1     -0.4828
     18 C         4.323147   -1.852887   8.352059 C.ar        1 UNL1     -0.0067
     19 C         4.16465   -1.154964   9.566965 C.ar        1 UNL1     -0.0516
     20 C         3.29325   -1.624777   10.556863 C.ar        1 UNL1     -0.0198
     21 C         2.581819   -2.79261   10.347434 C.ar        1 UNL1     0.1169
     22 C         2.691368   -3.484027   9.147942 C.ar        1 UNL1     -0.0198
     23 C         3.548782   -3.004461   8.150488 C.ar        1 UNL1     -0.0516
     24 O         1.77145   -3.239763   11.349311 O.3        1 UNL1     -0.5068
     25 O         6.621539   -4.575734   6.756804 O.2        1 UNL1     -0.2917
     26 O         5.285282   -5.62344   4.662703 O.3        1 UNL1     -0.5058
     27 O         1.328671   0.295657   2.167292 O.3        1 UNL1     -0.3648
     28 O         1.417798   0.357685   -1.4397 O.3        1 UNL1     -0.3841
     29 O         0.028837   -2.487408   0.241691 O.3        1 UNL1     -0.3863
     30 O         3.2806   -2.067881   -1.416665 O.3        1 UNL1     -0.3829
     31 H         2.304554   1.163717   0.659939 H        1 UNL1     0.0937
     32 H         -0.0   0.0   0.0 H        1 UNL1     0.0671
     33 H         0.778595   -1.967465   -1.561434 H        1 UNL1     0.0649
     34 H         2.354772   -3.535447   -0.320751 H        1 UNL1     0.0683
     35 H         4.124785   -2.379019   0.921818 H        1 UNL1     0.1085
     36 H         3.709095   -4.971884   2.765753 H        1 UNL1     0.0691
     37 H         3.225476   -0.85956   3.984399 H        1 UNL1     0.0691
     38 H         7.298846   -1.753465   6.510506 H        1 UNL1     0.0385
     39 H         7.011147   -2.48268   8.102366 H        1 UNL1     0.0385
     40 H         5.679531   -0.375718   7.706312 H        1 UNL1     0.0789
     41 H         4.718637   -0.240758   9.759258 H        1 UNL1     0.0623
     42 H         3.188688   -1.084077   11.494265 H        1 UNL1     0.0654
     43 H         2.127524   -4.391458   8.967498 H        1 UNL1     0.0654
     44 H         3.601778   -3.564143   7.221622 H        1 UNL1     0.0623
     45 H         2.326777   -3.481047   12.10833 H        1 UNL1     0.2921
     46 H         4.882285   -6.039385   5.441159 H        1 UNL1     0.2922
     47 H         1.900511   0.769133   2.787516 H        1 UNL1     0.2126
     48 H         0.742925   1.042315   -1.611636 H        1 UNL1     0.2101
     49 H         -0.016323   -3.420207   -0.022204 H        1 UNL1     0.2100
     50 H         2.735955   -2.076264   -2.230917 H        1 UNL1     0.2102
@<TRIPOS>BOND
     1     1     2    1
     2     1     6    1
     3     2     3    1
     4     3     4    1
     5     3    29    1
     6     3    33    1
     7     4     5    1
     8     5     6    1
     9     5     7    1
    10     5    35    1
    11     7     8    1
    12     8     9   ar
    13     8    13   ar
    14     9    10   ar
    15     9    36    1
    16    10    11   ar
    17    10    26    1
    18    11    12   ar
    19    11    14    1
    20    12    13   ar
    21    12    17    1
    22    13    37    1
    23    14    15    1
    24    14    25    2
    25    15    16    1
    26    15    38    1
    27    15    39    1
    28    16    17    1
    29    16    18    1
    30    16    40    1
    31    18    19   ar
    32    18    23   ar
    33    19    20   ar
    34    19    41    1
    35    20    21   ar
    36    20    42    1
    37    21    22   ar
    38    21    24    1
    39    22    23   ar
    40    22    43    1
    41    23    44    1
    42    24    45    1
    43    26    46    1
    44    27    47    1
    45    28    48    1
    46    29    49    1
    47    30    50    1
    48     1    31    1
    49     1    27    1
    50     2    32    1
    51     2    28    1
    52     4    34    1
    53     4    30    1
