@<TRIPOS>MOLECULE
*****
 50 53 0 0 0
SMALL
GASTEIGER

@<TRIPOS>ATOM
     1 C         -1.447348   -1.319124   0.967419 C.3        1 UNL1     0.1889
     2 C         -0.875689   -0.597431   -0.282503 C.3        1 UNL1     0.1342
     3 C         -1.88   0.302548   -1.018616 C.3        1 UNL1     0.1174
     4 C         -3.306381   -0.252162   -0.989456 C.3        1 UNL1     0.1456
     5 C         -3.727348   -0.724615   0.414089 C.3        1 UNL1     0.2326
     6 O         -2.811131   -1.707316   0.891284 O.3        1 UNL1     -0.3076
     7 O         -3.934971   0.354243   1.343756 O.3        1 UNL1     -0.4605
     8 C         -4.895316   0.140233   2.316107 C.ar        1 UNL1     0.1310
     9 C         -6.169429   -0.39292   2.093206 C.ar        1 UNL1     0.0226
     10 C         -7.067372   -0.587774   3.149442 C.ar        1 UNL1     0.1343
     11 C         -6.703884   -0.276051   4.458848 C.ar        1 UNL1     0.1007
     12 C         -5.449406   0.295198   4.688513 C.ar        1 UNL1     0.1389
     13 C         -4.547697   0.49348   3.625953 C.ar        1 UNL1     0.0229
     14 C         -7.581569   -0.539438   5.622657 C.2        1 UNL1     0.1740
     15 C         -6.947635   -0.351542   6.969643 C.3        1 UNL1     0.0520
     16 C         -6.064993   0.88791   6.918052 C.3        1 UNL1     0.1322
     17 O         -5.030092   0.739316   5.921072 O.3        1 UNL1     -0.4828
     18 C         -6.849025   2.19936   6.82795 C.ar        1 UNL1     -0.0067
     19 C         -6.485145   3.158714   5.860766 C.ar        1 UNL1     -0.0516
     20 C         -7.150548   4.387973   5.782512 C.ar        1 UNL1     -0.0198
     21 C         -8.174307   4.672216   6.668486 C.ar        1 UNL1     0.1169
     22 C         -8.57767   3.734493   7.610193 C.ar        1 UNL1     -0.0198
     23 C         -7.924676   2.497868   7.676633 C.ar        1 UNL1     -0.0516
     24 O         -8.773972   5.894556   6.586704 O.3        1 UNL1     -0.5068
     25 O         -8.730299   -0.962071   5.521233 O.2        1 UNL1     -0.2917
     26 O         -8.295026   -1.110641   2.864732 O.3        1 UNL1     -0.5058
     27 O         -1.159907   -0.652147   2.18615 O.3        1 UNL1     -0.3648
     28 O         -0.426984   -1.594273   -1.219346 O.3        1 UNL1     -0.3841
     29 O         -1.799392   1.64752   -0.542502 O.3        1 UNL1     -0.3863
     30 O         -3.399622   -1.367639   -1.901983 O.3        1 UNL1     -0.3829
     31 H         -0.913957   -2.272458   1.049449 H        1 UNL1     0.0937
     32 H         0.0   0.0   0.0 H        1 UNL1     0.0671
     33 H         -1.578284   0.348194   -2.074364 H        1 UNL1     0.0649
     34 H         -4.011102   0.509462   -1.341163 H        1 UNL1     0.0683
     35 H         -4.68369   -1.235362   0.245489 H        1 UNL1     0.1085
     36 H         -6.491357   -0.707342   1.106484 H        1 UNL1     0.0691
     37 H         -3.577531   0.94095   3.830992 H        1 UNL1     0.0691
     38 H         -6.357073   -1.248244   7.185719 H        1 UNL1     0.0385
     39 H         -7.73374   -0.268774   7.727908 H        1 UNL1     0.0385
     40 H         -5.522272   0.938739   7.871671 H        1 UNL1     0.0789
     41 H         -5.67883   2.96329   5.159827 H        1 UNL1     0.0623
     42 H         -6.85278   5.124233   5.040038 H        1 UNL1     0.0654
     43 H         -9.388143   3.940834   8.299009 H        1 UNL1     0.0654
     44 H         -8.272932   1.784873   8.417713 H        1 UNL1     0.0623
     45 H         -8.101627   6.577149   6.743981 H        1 UNL1     0.2921
     46 H         -8.433461   -1.915265   3.388973 H        1 UNL1     0.2922
     47 H         -0.205544   -0.526046   2.281807 H        1 UNL1     0.2126
     48 H         0.27779   -2.101261   -0.772145 H        1 UNL1     0.2101
     49 H         -0.958386   2.045446   -0.818469 H        1 UNL1     0.2100
     50 H         -3.26704   -1.025885   -2.810465 H        1 UNL1     0.2102
@<TRIPOS>BOND
     1     1     2    1
     2     1     6    1
     3     2     3    1
     4     3     4    1
     5     3    29    1
     6     3    33    1
     7     4     5    1
     8     5     6    1
     9     5     7    1
    10     5    35    1
    11     7     8    1
    12     8     9   ar
    13     8    13   ar
    14     9    10   ar
    15     9    36    1
    16    10    11   ar
    17    10    26    1
    18    11    12   ar
    19    11    14    1
    20    12    13   ar
    21    12    17    1
    22    13    37    1
    23    14    15    1
    24    14    25    2
    25    15    16    1
    26    15    38    1
    27    15    39    1
    28    16    17    1
    29    16    18    1
    30    16    40    1
    31    18    19   ar
    32    18    23   ar
    33    19    20   ar
    34    19    41    1
    35    20    21   ar
    36    20    42    1
    37    21    22   ar
    38    21    24    1
    39    22    23   ar
    40    22    43    1
    41    23    44    1
    42    24    45    1
    43    26    46    1
    44    27    47    1
    45    28    48    1
    46    29    49    1
    47    30    50    1
    48     1    31    1
    49     1    27    1
    50     2    32    1
    51     2    28    1
    52     4    34    1
    53     4    30    1
