@<TRIPOS>MOLECULE
*****
 50 53 0 0 0
SMALL
GASTEIGER

@<TRIPOS>ATOM
     1 C         -0.330477   -1.32727   1.702922 C.3        1 UNL1     0.1889
     2 C         -0.461732   -0.975559   0.196598 C.3        1 UNL1     0.1342
     3 C         -1.902769   -0.96438   -0.336086 C.3        1 UNL1     0.1174
     4 C         -2.788123   -2.023738   0.324994 C.3        1 UNL1     0.1456
     5 C         -2.635932   -2.047825   1.856863 C.3        1 UNL1     0.2326
     6 O         -1.270763   -2.264728   2.206342 O.3        1 UNL1     -0.3076
     7 O         -3.211385   -0.900671   2.508179 O.3        1 UNL1     -0.4605
     8 C         -3.720304   -1.115472   3.776403 C.ar        1 UNL1     0.1310
     9 C         -4.535628   -2.18878   4.151312 C.ar        1 UNL1     0.0226
     10 C         -4.987827   -2.328427   5.468854 C.ar        1 UNL1     0.1343
     11 C         -4.615739   -1.410172   6.449771 C.ar        1 UNL1     0.1007
     12 C         -3.835627   -0.311789   6.078605 C.ar        1 UNL1     0.1389
     13 C         -3.383251   -0.170166   4.753188 C.ar        1 UNL1     0.0229
     14 C         -4.995578   -1.555122   7.874154 C.2        1 UNL1     0.1740
     15 C         -4.326909   -0.605569   8.824301 C.3        1 UNL1     0.0520
     16 C         -4.25902   0.765921   8.166757 C.3        1 UNL1     0.1322
     17 O         -3.50101   0.70865   6.938258 O.3        1 UNL1     -0.4828
     18 C         -5.618875   1.457166   8.041455 C.ar        1 UNL1     -0.0067
     19 C         -5.99903   2.018663   6.805164 C.ar        1 UNL1     -0.0516
     20 C         -7.214905   2.69912   6.668822 C.ar        1 UNL1     -0.0198
     21 C         -8.054158   2.830981   7.760652 C.ar        1 UNL1     0.1169
     22 C         -7.722788   2.260047   8.982563 C.ar        1 UNL1     -0.0198
     23 C         -6.515446   1.563628   9.114405 C.ar        1 UNL1     -0.0516
     24 O         -9.212491   3.532937   7.599641 O.3        1 UNL1     -0.5068
     25 O         -5.743465   -2.43706   8.288079 O.2        1 UNL1     -0.2917
     26 O         -5.781149   -3.397116   5.769071 O.3        1 UNL1     -0.5058
     27 O         -0.225609   -0.188348   2.542353 O.3        1 UNL1     -0.3648
     28 O         0.26916   -1.954083   -0.565631 O.3        1 UNL1     -0.3841
     29 O         -2.461042   0.348929   -0.260704 O.3        1 UNL1     -0.3863
     30 O         -2.439914   -3.324698   -0.196487 O.3        1 UNL1     -0.3829
     31 H         0.630568   -1.839417   1.821992 H        1 UNL1     0.0937
     32 H         0.0   0.0   0.0 H        1 UNL1     0.0671
     33 H         -1.865994   -1.204707   -1.407819 H        1 UNL1     0.0649
     34 H         -3.838456   -1.846282   0.068654 H        1 UNL1     0.0683
     35 H         -3.189949   -2.943823   2.16367 H        1 UNL1     0.1085
     36 H         -4.813827   -2.966276   3.4483 H        1 UNL1     0.0691
     37 H         -2.77802   0.694525   4.489562 H        1 UNL1     0.0691
     38 H         -3.324153   -0.994752   9.030564 H        1 UNL1     0.0385
     39 H         -4.886604   -0.586177   9.765653 H        1 UNL1     0.0385
     40 H         -3.66426   1.412111   8.826469 H        1 UNL1     0.0789
     41 H         -5.353639   1.936713   5.935448 H        1 UNL1     0.0623
     42 H         -7.491344   3.137986   5.713317 H        1 UNL1     0.0654
     43 H         -8.379589   2.344356   9.840126 H        1 UNL1     0.0654
     44 H         -6.293431   1.121249   10.080767 H        1 UNL1     0.0623
     45 H         -8.987309   4.440444   7.338031 H        1 UNL1     0.2921
     46 H         -5.376507   -3.908754   6.487334 H        1 UNL1     0.2922
     47 H         0.517008   0.365582   2.26389 H        1 UNL1     0.2126
     48 H         1.202139   -1.887431   -0.284849 H        1 UNL1     0.2101
     49 H         -2.022796   0.931103   -0.901648 H        1 UNL1     0.2100
     50 H         -2.67351   -3.340617   -1.147746 H        1 UNL1     0.2102
@<TRIPOS>BOND
     1     1     2    1
     2     1     6    1
     3     2     3    1
     4     3     4    1
     5     3    29    1
     6     3    33    1
     7     4     5    1
     8     5     6    1
     9     5     7    1
    10     5    35    1
    11     7     8    1
    12     8     9   ar
    13     8    13   ar
    14     9    10   ar
    15     9    36    1
    16    10    11   ar
    17    10    26    1
    18    11    12   ar
    19    11    14    1
    20    12    13   ar
    21    12    17    1
    22    13    37    1
    23    14    15    1
    24    14    25    2
    25    15    16    1
    26    15    38    1
    27    15    39    1
    28    16    17    1
    29    16    18    1
    30    16    40    1
    31    18    19   ar
    32    18    23   ar
    33    19    20   ar
    34    19    41    1
    35    20    21   ar
    36    20    42    1
    37    21    22   ar
    38    21    24    1
    39    22    23   ar
    40    22    43    1
    41    23    44    1
    42    24    45    1
    43    26    46    1
    44    27    47    1
    45    28    48    1
    46    29    49    1
    47    30    50    1
    48     1    31    1
    49     1    27    1
    50     2    32    1
    51     2    28    1
    52     4    34    1
    53     4    30    1
