@<TRIPOS>MOLECULE
*****
 50 53 0 0 0
SMALL
GASTEIGER

@<TRIPOS>ATOM
     1 C         -1.00763   1.929976   -0.17515 C.3        1 UNL1     0.1889
     2 C         -0.007163   0.857613   -0.684113 C.3        1 UNL1     0.1342
     3 C         1.43221   1.361144   -0.871537 C.3        1 UNL1     0.1174
     4 C         1.495244   2.81418   -1.348853 C.3        1 UNL1     0.1456
     5 C         0.556194   3.738348   -0.552322 C.3        1 UNL1     0.2326
     6 O         -0.783064   3.255693   -0.631701 O.3        1 UNL1     -0.3076
     7 O         0.993738   3.973687   0.798416 O.3        1 UNL1     -0.4605
     8 C         1.926321   3.082242   1.297558 C.ar        1 UNL1     0.1310
     9 C         2.299064   2.967012   2.641093 C.ar        1 UNL1     0.0226
     10 C         3.243403   2.018439   3.051378 C.ar        1 UNL1     0.1343
     11 C         3.820885   1.145187   2.130624 C.ar        1 UNL1     0.1007
     12 C         3.487197   1.277999   0.780144 C.ar        1 UNL1     0.1389
     13 C         2.539614   2.233628   0.36748 C.ar        1 UNL1     0.0229
     14 C         4.760774   0.069035   2.52134 C.2        1 UNL1     0.1740
     15 C         5.108635   -0.912934   1.441398 C.3        1 UNL1     0.0520
     16 C         5.289354   -0.149899   0.136378 C.3        1 UNL1     0.1322
     17 O         4.074775   0.544268   -0.224175 O.3        1 UNL1     -0.4828
     18 C         6.550358   0.716813   0.098916 C.ar        1 UNL1     -0.0067
     19 C         7.061611   1.247939   1.300889 C.ar        1 UNL1     -0.0516
     20 C         8.185257   2.083022   1.296606 C.ar        1 UNL1     -0.0198
     21 C         8.800836   2.399718   0.098862 C.ar        1 UNL1     0.1169
     22 C         8.340913   1.865241   -1.097652 C.ar        1 UNL1     -0.0198
     23 C         7.228423   1.015308   -1.091681 C.ar        1 UNL1     -0.0516
     24 O         9.869746   3.246397   0.129954 O.3        1 UNL1     -0.5068
     25 O         5.179365   -0.080304   3.666314 O.2        1 UNL1     -0.2917
     26 O         3.564046   1.958161   4.376195 O.3        1 UNL1     -0.5058
     27 O         -1.216926   1.887456   1.22741 O.3        1 UNL1     -0.3648
     28 O         -0.463357   0.378624   -1.962848 O.3        1 UNL1     -0.3841
     29 O         2.207176   1.13163   0.306972 O.3        1 UNL1     -0.3863
     30 O         1.128015   2.870731   -2.74443 O.3        1 UNL1     -0.3829
     31 H         -1.983886   1.674309   -0.601341 H        1 UNL1     0.0937
     32 H         0.0   0.0   0.0 H        1 UNL1     0.0671
     33 H         1.902444   0.748994   -1.653759 H        1 UNL1     0.0649
     34 H         2.521967   3.18882   -1.272134 H        1 UNL1     0.0683
     35 H         0.586929   4.686063   -1.104382 H        1 UNL1     0.1085
     36 H         1.845298   3.578615   3.413207 H        1 UNL1     0.0691
     37 H         2.297943   2.317686   -0.689886 H        1 UNL1     0.0691
     38 H         4.284571   -1.630651   1.368406 H        1 UNL1     0.0385
     39 H         6.013141   -1.458905   1.730472 H        1 UNL1     0.0385
     40 H         5.425621   -0.895687   -0.658451 H        1 UNL1     0.0789
     41 H         6.590889   1.021739   2.253205 H        1 UNL1     0.0623
     42 H         8.562793   2.495909   2.228809 H        1 UNL1     0.0654
     43 H         8.824562   2.094621   -2.03966 H        1 UNL1     0.0654
     44 H         6.902636   0.607294   -2.043644 H        1 UNL1     0.0623
     45 H         9.556788   4.125744   0.397392 H        1 UNL1     0.2921
     46 H         4.445957   2.338769   4.513247 H        1 UNL1     0.2922
     47 H         -0.547636   2.417764   1.682034 H        1 UNL1     0.2126
     48 H         -1.439271   0.407165   -1.940271 H        1 UNL1     0.2101
     49 H         2.843651   1.853944   0.429272 H        1 UNL1     0.2100
     50 H         1.0769   1.95185   -3.080224 H        1 UNL1     0.2102
@<TRIPOS>BOND
     1     1     2    1
     2     1     6    1
     3     2     3    1
     4     3     4    1
     5     3    29    1
     6     3    33    1
     7     4     5    1
     8     5     6    1
     9     5     7    1
    10     5    35    1
    11     7     8    1
    12     8     9   ar
    13     8    13   ar
    14     9    10   ar
    15     9    36    1
    16    10    11   ar
    17    10    26    1
    18    11    12   ar
    19    11    14    1
    20    12    13   ar
    21    12    17    1
    22    13    37    1
    23    14    15    1
    24    14    25    2
    25    15    16    1
    26    15    38    1
    27    15    39    1
    28    16    17    1
    29    16    18    1
    30    16    40    1
    31    18    19   ar
    32    18    23   ar
    33    19    20   ar
    34    19    41    1
    35    20    21   ar
    36    20    42    1
    37    21    22   ar
    38    21    24    1
    39    22    23   ar
    40    22    43    1
    41    23    44    1
    42    24    45    1
    43    26    46    1
    44    27    47    1
    45    28    48    1
    46    29    49    1
    47    30    50    1
    48     1    31    1
    49     1    27    1
    50     2    32    1
    51     2    28    1
    52     4    34    1
    53     4    30    1
