@<TRIPOS>MOLECULE
*****
 50 53 0 0 0
SMALL
GASTEIGER

@<TRIPOS>ATOM
     1 C         -0.365224   -1.345017   1.681769 C.3        1 UNL1     0.1889
     2 C         -0.479425   -0.970285   0.179612 C.3        1 UNL1     0.1342
     3 C         -1.916091   -0.927474   -0.36318 C.3        1 UNL1     0.1174
     4 C         -2.823907   -1.980853   0.276648 C.3        1 UNL1     0.1456
     5 C         -2.683483   -2.028744   1.809081 C.3        1 UNL1     0.2326
     6 O         -1.324757   -2.273414   2.165267 O.3        1 UNL1     -0.3076
     7 O         -3.244477   -0.881216   2.472245 O.3        1 UNL1     -0.4605
     8 C         -3.766716   -1.105091   3.733464 C.ar        1 UNL1     0.1310
     9 C         -4.602925   -2.169532   4.087049 C.ar        1 UNL1     0.0226
     10 C         -5.067564   -2.319928   5.399068 C.ar        1 UNL1     0.1343
     11 C         -4.687588   -1.421974   6.395631 C.ar        1 UNL1     0.1007
     12 C         -3.88619   -0.331919   6.045882 C.ar        1 UNL1     0.1389
     13 C         -3.42128   -0.17944   4.726018 C.ar        1 UNL1     0.0229
     14 C         -5.080793   -1.5804   7.814943 C.2        1 UNL1     0.1740
     15 C         -4.403521   -0.655768   8.783399 C.3        1 UNL1     0.0520
     16 C         -4.307401   0.723453   8.145851 C.3        1 UNL1     0.1322
     17 O         -3.541017   0.670531   6.922362 O.3        1 UNL1     -0.4828
     18 C         -5.654375   1.439409   8.020185 C.ar        1 UNL1     -0.0067
     19 C         -6.014232   2.02699   6.789955 C.ar        1 UNL1     -0.0516
     20 C         -7.217335   2.729914   6.654302 C.ar        1 UNL1     -0.0198
     21 C         -8.063828   2.858346   7.740939 C.ar        1 UNL1     0.1169
     22 C         -7.752779   2.262382   8.956223 C.ar        1 UNL1     -0.0198
     23 C         -6.558434   1.543716   9.087046 C.ar        1 UNL1     -0.0516
     24 O         -9.208824   3.58219   7.581459 O.3        1 UNL1     -0.5068
     25 O         -5.846644   -2.455211   8.210748 O.2        1 UNL1     -0.2917
     26 O         -5.881121   -3.379077   5.678198 O.3        1 UNL1     -0.5058
     27 O         -0.24754   -0.219773   2.537786 O.3        1 UNL1     -0.3648
     28 O         0.240621   -1.950301   -0.590977 O.3        1 UNL1     -0.3841
     29 O         -2.452865   0.393871   -0.273431 O.3        1 UNL1     -0.3863
     30 O         -2.493654   -3.280129   -0.260479 O.3        1 UNL1     -0.3829
     31 H         0.586213   -1.874863   1.800547 H        1 UNL1     0.0937
     32 H         0.0   0.0   0.0 H        1 UNL1     0.0671
     33 H         -1.875409   -1.153496   -1.437879 H        1 UNL1     0.0649
     34 H         -3.869199   -1.782211   0.015294 H        1 UNL1     0.0683
     35 H         -3.254664   -2.919464   2.09934 H        1 UNL1     0.1085
     36 H         -4.888792   -2.932252   3.371048 H        1 UNL1     0.0691
     37 H         -2.79951   0.678445   4.479181 H        1 UNL1     0.0691
     38 H         -3.409105   -1.064798   8.991621 H        1 UNL1     0.0385
     39 H         -4.97005   -0.640062   9.720723 H        1 UNL1     0.0385
     40 H         -3.706912   1.350124   8.819064 H        1 UNL1     0.0789
     41 H         -5.362684   1.948155   5.924552 H        1 UNL1     0.0623
     42 H         -7.478007   3.188646   5.703709 H        1 UNL1     0.0654
     43 H         -8.415589   2.343962   9.809416 H        1 UNL1     0.0654
     44 H         -6.352331   1.082213   10.047974 H        1 UNL1     0.0623
     45 H         -8.966038   4.491982   7.344709 H        1 UNL1     0.2921
     46 H         -5.491416   -3.906765   6.393102 H        1 UNL1     0.2922
     47 H         0.503684   0.327675   2.269788 H        1 UNL1     0.2126
     48 H         1.175497   -1.891463   -0.314791 H        1 UNL1     0.2101
     49 H         -2.006051   0.975456   -0.90897 H        1 UNL1     0.2100
     50 H         -2.725694   -3.280778   -1.212251 H        1 UNL1     0.2102
@<TRIPOS>BOND
     1     1     2    1
     2     1     6    1
     3     2     3    1
     4     3     4    1
     5     3    29    1
     6     3    33    1
     7     4     5    1
     8     5     6    1
     9     5     7    1
    10     5    35    1
    11     7     8    1
    12     8     9   ar
    13     8    13   ar
    14     9    10   ar
    15     9    36    1
    16    10    11   ar
    17    10    26    1
    18    11    12   ar
    19    11    14    1
    20    12    13   ar
    21    12    17    1
    22    13    37    1
    23    14    15    1
    24    14    25    2
    25    15    16    1
    26    15    38    1
    27    15    39    1
    28    16    17    1
    29    16    18    1
    30    16    40    1
    31    18    19   ar
    32    18    23   ar
    33    19    20   ar
    34    19    41    1
    35    20    21   ar
    36    20    42    1
    37    21    22   ar
    38    21    24    1
    39    22    23   ar
    40    22    43    1
    41    23    44    1
    42    24    45    1
    43    26    46    1
    44    27    47    1
    45    28    48    1
    46    29    49    1
    47    30    50    1
    48     1    31    1
    49     1    27    1
    50     2    32    1
    51     2    28    1
    52     4    34    1
    53     4    30    1
