@<TRIPOS>MOLECULE
*****
 50 53 0 0 0
SMALL
GASTEIGER

@<TRIPOS>ATOM
     1 C         -0.325092   -1.331357   1.700767 C.3        1 UNL1     0.1889
     2 C         -0.460388   -0.976402   0.195562 C.3        1 UNL1     0.1342
     3 C         -1.902749   -0.965307   -0.333527 C.3        1 UNL1     0.1174
     4 C         -2.785533   -2.026918   0.327376 C.3        1 UNL1     0.1456
     5 C         -2.629526   -2.054287   1.858806 C.3        1 UNL1     0.2326
     6 O         -1.263305   -2.270765   2.204419 O.3        1 UNL1     -0.3076
     7 O         -3.204369   -0.909098   2.514105 O.3        1 UNL1     -0.4605
     8 C         -3.709956   -1.127176   3.783102 C.ar        1 UNL1     0.1310
     9 C         -4.523407   -2.202037   4.157631 C.ar        1 UNL1     0.0226
     10 C         -4.972217   -2.345022   5.475974 C.ar        1 UNL1     0.1343
     11 C         -4.598505   -1.428629   6.458015 C.ar        1 UNL1     0.1007
     12 C         -3.820279   -0.328733   6.087372 C.ar        1 UNL1     0.1389
     13 C         -3.371313   -0.183754   4.761159 C.ar        1 UNL1     0.0229
     14 C         -4.974686   -1.577091   7.883006 C.2        1 UNL1     0.1740
     15 C         -4.304498   -0.62907   8.833613 C.3        1 UNL1     0.0520
     16 C         -4.239441   0.743942   8.178967 C.3        1 UNL1     0.1322
     17 O         -3.484428   0.690081   6.94847 O.3        1 UNL1     -0.4828
     18 C         -5.600208   1.434264   8.058576 C.ar        1 UNL1     -0.0067
     19 C         -5.983917   1.998182   6.824486 C.ar        1 UNL1     -0.0516
     20 C         -7.200723   2.677868   6.692675 C.ar        1 UNL1     -0.0198
     21 C         -8.037383   2.806553   7.786872 C.ar        1 UNL1     0.1169
     22 C         -7.702486   2.233187   9.006681 C.ar        1 UNL1     -0.0198
     23 C         -6.49421   1.537542   9.133978 C.ar        1 UNL1     -0.0516
     24 O         -9.196726   3.507843   7.630297 O.3        1 UNL1     -0.5068
     25 O         -5.720772   -2.460611   8.296811 O.2        1 UNL1     -0.2917
     26 O         -5.763855   -3.415078   5.775766 O.3        1 UNL1     -0.5058
     27 O         -0.219144   -0.194218   2.542477 O.3        1 UNL1     -0.3648
     28 O         0.269471   -1.952578   -0.570658 O.3        1 UNL1     -0.3841
     29 O         -2.461985   0.347338   -0.25383 O.3        1 UNL1     -0.3863
     30 O         -2.437477   -3.326404   -0.197869 O.3        1 UNL1     -0.3829
     31 H         0.636693   -1.842919   1.816314 H        1 UNL1     0.0937
     32 H         0.0   0.0   0.0 H        1 UNL1     0.0671
     33 H         -1.86842   -1.20321   -1.405881 H        1 UNL1     0.0649
     34 H         -3.836653   -1.849817   0.074035 H        1 UNL1     0.0683
     35 H         -3.181995   -2.951456   2.164983 H        1 UNL1     0.1085
     36 H         -4.802665   -2.978208   3.453576 H        1 UNL1     0.0691
     37 H         -2.767495   0.682056   4.497965 H        1 UNL1     0.0691
     38 H         -3.300893   -1.017827   9.036523 H        1 UNL1     0.0385
     39 H         -4.861875   -0.612273   9.776389 H        1 UNL1     0.0385
     40 H         -3.643616   1.389184   8.838645 H        1 UNL1     0.0789
     41 H         -5.340612   1.918742   5.952995 H        1 UNL1     0.0623
     42 H         -7.479913   3.118621   5.73884 H        1 UNL1     0.0654
     43 H         -8.357234   2.315003   9.866053 H        1 UNL1     0.0654
     44 H         -6.269414   1.093204   10.098796 H        1 UNL1     0.0623
     45 H         -8.972989   4.416131   7.370157 H        1 UNL1     0.2921
     46 H         -5.356986   -3.92796   6.491882 H        1 UNL1     0.2922
     47 H         0.522295   0.360987   2.263414 H        1 UNL1     0.2126
     48 H         1.202967   -1.886219   -0.291526 H        1 UNL1     0.2101
     49 H         -2.02584   0.931326   -0.894556 H        1 UNL1     0.2100
     50 H         -2.673415   -3.340407   -1.148579 H        1 UNL1     0.2102
@<TRIPOS>BOND
     1     1     2    1
     2     1     6    1
     3     2     3    1
     4     3     4    1
     5     3    29    1
     6     3    33    1
     7     4     5    1
     8     5     6    1
     9     5     7    1
    10     5    35    1
    11     7     8    1
    12     8     9   ar
    13     8    13   ar
    14     9    10   ar
    15     9    36    1
    16    10    11   ar
    17    10    26    1
    18    11    12   ar
    19    11    14    1
    20    12    13   ar
    21    12    17    1
    22    13    37    1
    23    14    15    1
    24    14    25    2
    25    15    16    1
    26    15    38    1
    27    15    39    1
    28    16    17    1
    29    16    18    1
    30    16    40    1
    31    18    19   ar
    32    18    23   ar
    33    19    20   ar
    34    19    41    1
    35    20    21   ar
    36    20    42    1
    37    21    22   ar
    38    21    24    1
    39    22    23   ar
    40    22    43    1
    41    23    44    1
    42    24    45    1
    43    26    46    1
    44    27    47    1
    45    28    48    1
    46    29    49    1
    47    30    50    1
    48     1    31    1
    49     1    27    1
    50     2    32    1
    51     2    28    1
    52     4    34    1
    53     4    30    1
