@<TRIPOS>MOLECULE
*****
 50 53 0 0 0
SMALL
GASTEIGER

@<TRIPOS>ATOM
     1 C         -0.410376   -1.363256   1.656481 C.3        1 UNL1     0.1889
     2 C         -0.50304   -0.961763   0.159765 C.3        1 UNL1     0.1342
     3 C         -1.933626   -0.877109   -0.39406 C.3        1 UNL1     0.1174
     4 C         -2.87079   -1.919507   0.220959 C.3        1 UNL1     0.1456
     5 C         -2.74469   -1.995382   1.753507 C.3        1 UNL1     0.2326
     6 O         -1.395036   -2.277003   2.116815 O.3        1 UNL1     -0.3076
     7 O         -3.284951   -0.846108   2.430713 O.3        1 UNL1     -0.4605
     8 C         -3.823011   -1.078253   3.683761 C.ar        1 UNL1     0.1310
     9 C         -4.68638   -2.12873   4.012992 C.ar        1 UNL1     0.0226
     10 C         -5.165612   -2.289572   5.318507 C.ar        1 UNL1     0.1343
     11 C         -4.773767   -1.416833   6.332718 C.ar        1 UNL1     0.1007
     12 C         -3.944645   -0.340011   6.007453 C.ar        1 UNL1     0.1389
     13 C         -3.465028   -0.176966   4.694131 C.ar        1 UNL1     0.0229
     14 C         -5.182693   -1.589081   7.745964 C.2        1 UNL1     0.1740
     15 C         -4.492789   -0.696066   8.734956 C.3        1 UNL1     0.0520
     16 C         -4.359638   0.690701   8.120866 C.3        1 UNL1     0.1322
     17 O         -3.584168   0.639925   6.903024 O.3        1 UNL1     -0.4828
     18 C         -5.688738   1.439424   7.995845 C.ar        1 UNL1     -0.0067
     19 C         -6.024451   2.054944   6.77247 C.ar        1 UNL1     -0.0516
     20 C         -7.209935   2.78749   6.638435 C.ar        1 UNL1     -0.0198
     21 C         -8.062585   2.917802   7.720024 C.ar        1 UNL1     0.1169
     22 C         -7.775728   2.295267   8.927916 C.ar        1 UNL1     -0.0198
     23 C         -6.599318   1.547266   9.056792 C.ar        1 UNL1     -0.0516
     24 O         -9.189295   3.670306   7.562986 O.3        1 UNL1     -0.5068
     25 O         -5.971748   -2.452306   8.121091 O.2        1 UNL1     -0.2917
     26 O         -6.005573   -3.334078   5.57357 O.3        1 UNL1     -0.5058
     27 O         -0.274333   -0.255005   2.531728 O.3        1 UNL1     -0.3648
     28 O         0.200987   -1.945518   -0.620798 O.3        1 UNL1     -0.3841
     29 O         -2.440762   0.454623   -0.287131 O.3        1 UNL1     -0.3863
     30 O         -2.565758   -3.217193   -0.334611 O.3        1 UNL1     -0.3829
     31 H         0.527625   -1.916724   1.774403 H        1 UNL1     0.0937
     32 H         0.0   0.0   0.0 H        1 UNL1     0.0671
     33 H         -1.888883   -1.086608   -1.471941 H        1 UNL1     0.0649
     34 H         -3.908973   -1.692646   -0.045706 H        1 UNL1     0.0683
     35 H         -3.338587   -2.877287   2.024448 H        1 UNL1     0.1085
     36 H         -4.983462   -2.872992   3.282283 H        1 UNL1     0.0691
     37 H         -2.821681   0.67025   4.466485 H        1 UNL1     0.0691
     38 H         -3.509825   -1.131201   8.944638 H        1 UNL1     0.0385
     39 H         -5.066854   -0.682469   9.667717 H        1 UNL1     0.0385
     40 H         -3.750775   1.292413   8.809159 H        1 UNL1     0.0789
     41 H         -5.367457   1.975123   5.911286 H        1 UNL1     0.0623
     42 H         -7.451848   3.267408   5.693359 H        1 UNL1     0.0654
     43 H         -8.443813   2.378289   9.776845 H        1 UNL1     0.0654
     44 H         -6.412109   1.065668   10.011707 H        1 UNL1     0.0623
     45 H         -8.923771   4.577319   7.340406 H        1 UNL1     0.2921
     46 H         -5.633541   -3.882863   6.281976 H        1 UNL1     0.2922
     47 H         0.492313   0.278496   2.279753 H        1 UNL1     0.2126
     48 H         1.134553   -1.912697   -0.336001 H        1 UNL1     0.2101
     49 H         -1.969587   1.037661   -0.903455 H        1 UNL1     0.2100
     50 H         -2.784244   -3.195355   -1.289336 H        1 UNL1     0.2102
@<TRIPOS>BOND
     1     1     2    1
     2     1     6    1
     3     2     3    1
     4     3     4    1
     5     3    29    1
     6     3    33    1
     7     4     5    1
     8     5     6    1
     9     5     7    1
    10     5    35    1
    11     7     8    1
    12     8     9   ar
    13     8    13   ar
    14     9    10   ar
    15     9    36    1
    16    10    11   ar
    17    10    26    1
    18    11    12   ar
    19    11    14    1
    20    12    13   ar
    21    12    17    1
    22    13    37    1
    23    14    15    1
    24    14    25    2
    25    15    16    1
    26    15    38    1
    27    15    39    1
    28    16    17    1
    29    16    18    1
    30    16    40    1
    31    18    19   ar
    32    18    23   ar
    33    19    20   ar
    34    19    41    1
    35    20    21   ar
    36    20    42    1
    37    21    22   ar
    38    21    24    1
    39    22    23   ar
    40    22    43    1
    41    23    44    1
    42    24    45    1
    43    26    46    1
    44    27    47    1
    45    28    48    1
    46    29    49    1
    47    30    50    1
    48     1    31    1
    49     1    27    1
    50     2    32    1
    51     2    28    1
    52     4    34    1
    53     4    30    1
