@<TRIPOS>MOLECULE
*****
 50 53 0 0 0
SMALL
GASTEIGER

@<TRIPOS>ATOM
     1 C         2.01444   0.64172   0.548661 C.3        1 UNL1     0.1889
     2 C         0.529776   0.348944   0.895063 C.3        1 UNL1     0.1342
     3 C         -0.234396   1.537537   1.498183 C.3        1 UNL1     0.1174
     4 C         0.644348   2.416048   2.392131 C.3        1 UNL1     0.1456
     5 C         2.00153   2.746011   1.744408 C.3        1 UNL1     0.2326
     6 O         2.689219   1.540952   1.416101 O.3        1 UNL1     -0.3076
     7 O         1.901151   3.659898   0.637134 O.3        1 UNL1     -0.4605
     8 C         3.011721   4.44997   0.400602 C.ar        1 UNL1     0.1310
     9 C         2.994758   5.83612   0.211919 C.ar        1 UNL1     0.0226
     10 C         4.178404   6.551541   -0.005006 C.ar        1 UNL1     0.1343
     11 C         5.411364   5.90073   -0.014804 C.ar        1 UNL1     0.1007
     12 C         5.437252   4.511236   0.131548 C.ar        1 UNL1     0.1389
     13 C         4.246718   3.791768   0.347013 C.ar        1 UNL1     0.0229
     14 C         6.699574   6.618186   -0.155959 C.2        1 UNL1     0.1740
     15 C         7.931088   5.79361   0.078558 C.3        1 UNL1     0.0520
     16 C         7.722461   4.42507   -0.555106 C.3        1 UNL1     0.1322
     17 O         6.583252   3.757074   0.030603 O.3        1 UNL1     -0.4828
     18 C         7.726894   4.447533   -2.08553 C.ar        1 UNL1     -0.0067
     19 C         8.549008   5.371905   -2.762198 C.ar        1 UNL1     -0.0516
     20 C         8.541539   5.451093   -4.159923 C.ar        1 UNL1     -0.0198
     21 C         7.712846   4.618352   -4.890427 C.ar        1 UNL1     0.1169
     22 C         6.916663   3.674857   -4.254228 C.ar        1 UNL1     -0.0198
     23 C         6.937637   3.582838   -2.857393 C.ar        1 UNL1     -0.0516
     24 O         7.704461   4.750147   -6.247984 O.3        1 UNL1     -0.5068
     25 O         6.781534   7.82476   -0.370311 O.2        1 UNL1     -0.2917
     26 O         4.09312   7.90158   -0.183067 O.3        1 UNL1     -0.5058
     27 O         2.221862   0.974318   -0.814842 O.3        1 UNL1     -0.3648
     28 O         0.488444   -0.720168   1.858388 O.3        1 UNL1     -0.3841
     29 O         -0.903181   2.28098   0.477324 O.3        1 UNL1     -0.3863
     30 O         0.880664   1.732883   3.642383 O.3        1 UNL1     -0.3829
     31 H         2.55838   -0.299737   0.682331 H        1 UNL1     0.0937
     32 H         -0.0   0.0   0.0 H        1 UNL1     0.0671
     33 H         -1.033177   1.133848   2.135917 H        1 UNL1     0.0649
     34 H         0.121049   3.348675   2.630387 H        1 UNL1     0.0683
     35 H         2.569155   3.227724   2.550407 H        1 UNL1     0.1085
     36 H         2.074452   6.40747   0.264059 H        1 UNL1     0.0691
     37 H         4.293732   2.71047   0.456917 H        1 UNL1     0.0691
     38 H         8.07246   5.710058   1.161406 H        1 UNL1     0.0385
     39 H         8.797959   6.316008   -0.340266 H        1 UNL1     0.0385
     40 H         8.581687   3.802485   -0.271134 H        1 UNL1     0.0789
     41 H         9.201622   6.042828   -2.211192 H        1 UNL1     0.0623
     42 H         9.171217   6.176221   -4.669538 H        1 UNL1     0.0654
     43 H         6.275165   3.007558   -4.817347 H        1 UNL1     0.0654
     44 H         6.310719   2.827073   -2.394102 H        1 UNL1     0.0623
     45 H         8.559912   4.444816   -6.591049 H        1 UNL1     0.2921
     46 H         4.297635   8.119714   -1.106108 H        1 UNL1     0.2922
     47 H         3.132708   1.269682   -0.952607 H        1 UNL1     0.2126
     48 H         0.914357   -0.382274   2.669658 H        1 UNL1     0.2101
     49 H         -1.782717   2.549639   0.787216 H        1 UNL1     0.2100
     50 H         1.846973   1.724201   3.803268 H        1 UNL1     0.2102
@<TRIPOS>BOND
     1     1     2    1
     2     1     6    1
     3     2     3    1
     4     3     4    1
     5     3    29    1
     6     3    33    1
     7     4     5    1
     8     5     6    1
     9     5     7    1
    10     5    35    1
    11     7     8    1
    12     8     9   ar
    13     8    13   ar
    14     9    10   ar
    15     9    36    1
    16    10    11   ar
    17    10    26    1
    18    11    12   ar
    19    11    14    1
    20    12    13   ar
    21    12    17    1
    22    13    37    1
    23    14    15    1
    24    14    25    2
    25    15    16    1
    26    15    38    1
    27    15    39    1
    28    16    17    1
    29    16    18    1
    30    16    40    1
    31    18    19   ar
    32    18    23   ar
    33    19    20   ar
    34    19    41    1
    35    20    21   ar
    36    20    42    1
    37    21    22   ar
    38    21    24    1
    39    22    23   ar
    40    22    43    1
    41    23    44    1
    42    24    45    1
    43    26    46    1
    44    27    47    1
    45    28    48    1
    46    29    49    1
    47    30    50    1
    48     1    31    1
    49     1    27    1
    50     2    32    1
    51     2    28    1
    52     4    34    1
    53     4    30    1
