@<TRIPOS>MOLECULE
*****
 50 53 0 0 0
SMALL
GASTEIGER

@<TRIPOS>ATOM
     1 C         -0.326516   -1.366727   1.672199 C.3        1 UNL1     0.1889
     2 C         -0.462171   -0.979453   0.175016 C.3        1 UNL1     0.1342
     3 C         -1.90488   -0.954248   -0.35264 C.3        1 UNL1     0.1174
     4 C         -2.789287   -2.028   0.286107 C.3        1 UNL1     0.1456
     5 C         -2.632256   -2.088363   1.816487 C.3        1 UNL1     0.2326
     6 O         -1.266222   -2.314838   2.156381 O.3        1 UNL1     -0.3076
     7 O         -3.204383   -0.956305   2.496513 O.3        1 UNL1     -0.4605
     8 C         -3.170444   0.244036   1.809813 C.ar        1 UNL1     0.1310
     9 C         -2.061428   0.756546   1.128111 C.ar        1 UNL1     0.0226
     10 C         -2.131734   1.977107   0.446063 C.ar        1 UNL1     0.1343
     11 C         -3.320922   2.70396   0.409213 C.ar        1 UNL1     0.1007
     12 C         -4.423278   2.222547   1.120433 C.ar        1 UNL1     0.1389
     13 C         -4.351559   0.996556   1.808352 C.ar        1 UNL1     0.0229
     14 C         -3.475144   3.957061   -0.365454 C.2        1 UNL1     0.1740
     15 C         -4.875699   4.484236   -0.475371 C.3        1 UNL1     0.0520
     16 C         -5.565113   4.304532   0.87013 C.3        1 UNL1     0.1322
     17 O         -5.60915   2.909086   1.241426 O.3        1 UNL1     -0.4828
     18 C         -5.03493   5.235412   1.963333 C.ar        1 UNL1     -0.0067
     19 C         -4.712145   4.704026   3.228897 C.ar        1 UNL1     -0.0516
     20 C         -4.269892   5.53487   4.265273 C.ar        1 UNL1     -0.0198
     21 C         -4.153519   6.896689   4.051418 C.ar        1 UNL1     0.1169
     22 C         -4.431889   7.445093   2.806187 C.ar        1 UNL1     -0.0198
     23 C         -4.856493   6.611971   1.76423 C.ar        1 UNL1     -0.0516
     24 O         -3.756066   7.679389   5.095358 O.3        1 UNL1     -0.5068
     25 O         -2.54831   4.505047   -0.956363 O.2        1 UNL1     -0.2917
     26 O         -1.014146   2.421847   -0.197978 O.3        1 UNL1     -0.5058
     27 O         -0.217737   -0.248026   2.537914 O.3        1 UNL1     -0.3648
     28 O         0.265225   -1.940472   -0.612412 O.3        1 UNL1     -0.3841
     29 O         -2.461475   0.357486   -0.244522 O.3        1 UNL1     -0.3863
     30 O         -2.44416   -3.316653   -0.26702 O.3        1 UNL1     -0.3829
     31 H         0.634342   -1.882517   1.776081 H        1 UNL1     0.0937
     32 H         0.0   0.0   0.0 H        1 UNL1     0.0671
     33 H         -1.871774   -1.169269   -1.429854 H        1 UNL1     0.0649
     34 H         -3.840235   -1.843478   0.037388 H        1 UNL1     0.0683
     35 H         -3.186275   -2.990784   2.103852 H        1 UNL1     0.1085
     36 H         -1.124971   0.21244   1.072277 H        1 UNL1     0.0691
     37 H         -5.223453   0.644243   2.355316 H        1 UNL1     0.0691
     38 H         -5.384152   3.912653   -1.25914 H        1 UNL1     0.0385
     39 H         -4.840717   5.534106   -0.785738 H        1 UNL1     0.0385
     40 H         -6.618176   4.585885   0.734415 H        1 UNL1     0.0789
     41 H         -4.803839   3.639656   3.42475 H        1 UNL1     0.0623
     42 H         -4.03547   5.114726   5.240228 H        1 UNL1     0.0654
     43 H         -4.329733   8.508148   2.623458 H        1 UNL1     0.0654
     44 H         -5.055085   7.072866   0.801431 H        1 UNL1     0.0623
     45 H         -4.420073   7.610657   5.800403 H        1 UNL1     0.2921
     46 H         -1.218593   2.571876   -1.134516 H        1 UNL1     0.2922
     47 H         0.511586   0.322465   2.257758 H        1 UNL1     0.2126
     48 H         1.205415   -1.851682   -0.363633 H        1 UNL1     0.2101
     49 H         -2.0305   0.952166   -0.878881 H        1 UNL1     0.2100
     50 H         -2.686009   -3.31185   -1.216335 H        1 UNL1     0.2102
@<TRIPOS>BOND
     1     1     2    1
     2     1     6    1
     3     2     3    1
     4     3     4    1
     5     3    29    1
     6     3    33    1
     7     4     5    1
     8     5     6    1
     9     5     7    1
    10     5    35    1
    11     7     8    1
    12     8     9   ar
    13     8    13   ar
    14     9    10   ar
    15     9    36    1
    16    10    11   ar
    17    10    26    1
    18    11    12   ar
    19    11    14    1
    20    12    13   ar
    21    12    17    1
    22    13    37    1
    23    14    15    1
    24    14    25    2
    25    15    16    1
    26    15    38    1
    27    15    39    1
    28    16    17    1
    29    16    18    1
    30    16    40    1
    31    18    19   ar
    32    18    23   ar
    33    19    20   ar
    34    19    41    1
    35    20    21   ar
    36    20    42    1
    37    21    22   ar
    38    21    24    1
    39    22    23   ar
    40    22    43    1
    41    23    44    1
    42    24    45    1
    43    26    46    1
    44    27    47    1
    45    28    48    1
    46    29    49    1
    47    30    50    1
    48     1    31    1
    49     1    27    1
    50     2    32    1
    51     2    28    1
    52     4    34    1
    53     4    30    1
