@<TRIPOS>MOLECULE
*****
 50 53 0 0 0
SMALL
GASTEIGER

@<TRIPOS>ATOM
     1 C         -0.406239   -1.360282   1.659942 C.3        1 UNL1     0.1889
     2 C         -0.50094   -0.96242   0.162385 C.3        1 UNL1     0.1342
     3 C         -1.932145   -0.881966   -0.390465 C.3        1 UNL1     0.1174
     4 C         -2.866673   -1.924863   0.227711 C.3        1 UNL1     0.1456
     5 C         -2.739174   -1.996957   1.760326 C.3        1 UNL1     0.2326
     6 O         -1.388652   -2.27498   2.123178 O.3        1 UNL1     -0.3076
     7 O         -3.281237   -0.847237   2.435331 O.3        1 UNL1     -0.4605
     8 C         -3.817803   -1.077602   3.689348 C.ar        1 UNL1     0.1310
     9 C         -4.678751   -2.129083   4.021697 C.ar        1 UNL1     0.0226
     10 C         -5.156593   -2.287904   5.327968 C.ar        1 UNL1     0.1343
     11 C         -4.765713   -1.412036   6.339852 C.ar        1 UNL1     0.1007
     12 C         -3.939062   -0.334272   6.011438 C.ar        1 UNL1     0.1389
     13 C         -3.460846   -0.173265   4.697354 C.ar        1 UNL1     0.0229
     14 C         -5.173137   -1.581872   7.753823 C.2        1 UNL1     0.1740
     15 C         -4.484261   -0.685177   8.740198 C.3        1 UNL1     0.0520
     16 C         -4.354448   0.700444   8.122816 C.3        1 UNL1     0.1322
     17 O         -3.579865   0.648456   6.904461 O.3        1 UNL1     -0.4828
     18 C         -5.68518   1.446158   7.997161 C.ar        1 UNL1     -0.0067
     19 C         -6.023564   2.057381   6.772369 C.ar        1 UNL1     -0.0516
     20 C         -7.210658   2.787176   6.637577 C.ar        1 UNL1     -0.0198
     21 C         -8.062282   2.919003   7.71979 C.ar        1 UNL1     0.1169
     22 C         -7.772758   2.300623   8.929179 C.ar        1 UNL1     -0.0198
     23 C         -6.594713   1.55534   9.058869 C.ar        1 UNL1     -0.0516
     24 O         -9.190669   3.668805   7.561866 O.3        1 UNL1     -0.5068
     25 O         -5.960118   -2.445845   8.131576 O.2        1 UNL1     -0.2917
     26 O         -5.994207   -3.333537   5.586116 O.3        1 UNL1     -0.5058
     27 O         -0.271754   -0.249746   2.53253 O.3        1 UNL1     -0.3648
     28 O         0.204465   -1.946525   -0.616492 O.3        1 UNL1     -0.3841
     29 O         -2.44192   0.448968   -0.286181 O.3        1 UNL1     -0.3863
     30 O         -2.559437   -3.223195   -0.325126 O.3        1 UNL1     -0.3829
     31 H         0.532989   -1.911557   1.778369 H        1 UNL1     0.0937
     32 H         0.0   0.0   0.0 H        1 UNL1     0.0671
     33 H         -1.887849   -1.09385   -1.467899 H        1 UNL1     0.0649
     34 H         -3.905535   -1.700739   -0.038626 H        1 UNL1     0.0683
     35 H         -3.331044   -2.87945   2.033777 H        1 UNL1     0.1085
     36 H         -4.974903   -2.875629   3.292941 H        1 UNL1     0.0691
     37 H         -2.81942   0.67474   4.467237 H        1 UNL1     0.0691
     38 H         -3.500238   -1.117817   8.950076 H        1 UNL1     0.0385
     39 H         -5.057595   -0.670611   9.673394 H        1 UNL1     0.0385
     40 H         -3.74626   1.304981   8.809227 H        1 UNL1     0.0789
     41 H         -5.367434   1.97631   5.910643 H        1 UNL1     0.0623
     42 H         -7.454644   3.263809   5.691372 H        1 UNL1     0.0654
     43 H         -8.439999   2.384837   9.778653 H        1 UNL1     0.0654
     44 H         -6.405416   1.076948   10.014982 H        1 UNL1     0.0623
     45 H         -8.927337   4.574332   7.330796 H        1 UNL1     0.2921
     46 H         -5.620477   -3.87993   6.295476 H        1 UNL1     0.2922
     47 H         0.495207   0.283222   2.280389 H        1 UNL1     0.2126
     48 H         1.134838   -1.923037   -0.320541 H        1 UNL1     0.2101
     49 H         -1.972322   1.031586   -0.904103 H        1 UNL1     0.2100
     50 H         -2.778742   -3.203999   -1.27972 H        1 UNL1     0.2102
@<TRIPOS>BOND
     1     1     2    1
     2     1     6    1
     3     2     3    1
     4     3     4    1
     5     3    29    1
     6     3    33    1
     7     4     5    1
     8     5     6    1
     9     5     7    1
    10     5    35    1
    11     7     8    1
    12     8     9   ar
    13     8    13   ar
    14     9    10   ar
    15     9    36    1
    16    10    11   ar
    17    10    26    1
    18    11    12   ar
    19    11    14    1
    20    12    13   ar
    21    12    17    1
    22    13    37    1
    23    14    15    1
    24    14    25    2
    25    15    16    1
    26    15    38    1
    27    15    39    1
    28    16    17    1
    29    16    18    1
    30    16    40    1
    31    18    19   ar
    32    18    23   ar
    33    19    20   ar
    34    19    41    1
    35    20    21   ar
    36    20    42    1
    37    21    22   ar
    38    21    24    1
    39    22    23   ar
    40    22    43    1
    41    23    44    1
    42    24    45    1
    43    26    46    1
    44    27    47    1
    45    28    48    1
    46    29    49    1
    47    30    50    1
    48     1    31    1
    49     1    27    1
    50     2    32    1
    51     2    28    1
    52     4    34    1
    53     4    30    1
