@<TRIPOS>MOLECULE
*****
 50 53 0 0 0
SMALL
GASTEIGER

@<TRIPOS>ATOM
     1 C         2.072648   0.67305   0.148115 C.3        1 UNL1     0.1889
     2 C         0.894362   -0.236025   0.58989 C.3        1 UNL1     0.1342
     3 C         0.545586   -0.15299   2.083853 C.3        1 UNL1     0.1174
     4 C         1.775692   0.060446   2.969516 C.3        1 UNL1     0.1456
     5 C         2.705665   1.163505   2.432138 C.3        1 UNL1     0.2326
     6 O         3.110229   0.852285   1.100846 O.3        1 UNL1     -0.3076
     7 O         2.158463   2.488262   2.562178 O.3        1 UNL1     -0.4605
     8 C         2.7754   3.475077   1.814439 C.ar        1 UNL1     0.1310
     9 C         3.168908   4.728828   2.294607 C.ar        1 UNL1     0.0226
     10 C         3.804204   5.656487   1.460491 C.ar        1 UNL1     0.1343
     11 C         4.083073   5.343468   0.130795 C.ar        1 UNL1     0.1007
     12 C         3.658192   4.110418   -0.37105 C.ar        1 UNL1     0.1389
     13 C         3.01706   3.178864   0.467154 C.ar        1 UNL1     0.0229
     14 C         4.826346   6.25289   -0.771786 C.2        1 UNL1     0.1740
     15 C         5.231505   5.668092   -2.092924 C.3        1 UNL1     0.0520
     16 C         4.084705   4.812349   -2.613031 C.3        1 UNL1     0.1322
     17 O         3.784149   3.742064   -1.690412 O.3        1 UNL1     -0.4828
     18 C         2.86662   5.622302   -3.063554 C.ar        1 UNL1     -0.0067
     19 C         2.44061   5.543954   -4.405415 C.ar        1 UNL1     -0.0516
     20 C         1.35965   6.307724   -4.861642 C.ar        1 UNL1     -0.0198
     21 C         0.702547   7.157223   -3.989636 C.ar        1 UNL1     0.1169
     22 C         1.077451   7.231099   -2.65441 C.ar        1 UNL1     -0.0198
     23 C         2.146649   6.453625   -2.193532 C.ar        1 UNL1     -0.0516
     24 O         -0.321527   7.91371   -4.47892 O.3        1 UNL1     -0.5068
     25 O         5.171477   7.387849   -0.453607 O.2        1 UNL1     -0.2917
     26 O         4.161583   6.86201   1.990189 O.3        1 UNL1     -0.5058
     27 O         1.654921   1.908678   -0.41002 O.3        1 UNL1     -0.3648
     28 O         1.242629   -1.603947   0.306683 O.3        1 UNL1     -0.3841
     29 O         -0.476514   0.819172   2.312647 O.3        1 UNL1     -0.3863
     30 O         2.519914   -1.174456   3.052228 O.3        1 UNL1     -0.3829
     31 H         2.571628   0.158045   -0.680057 H        1 UNL1     0.0937
     32 H         -0.0   0.0   0.0 H        1 UNL1     0.0671
     33 H         0.104423   -1.115207   2.379205 H        1 UNL1     0.0649
     34 H         1.463348   0.315311   3.988283 H        1 UNL1     0.0683
     35 H         3.599756   1.086469   3.063443 H        1 UNL1     0.1085
     36 H         3.030862   5.010897   3.332634 H        1 UNL1     0.0691
     37 H         2.69512   2.2263   0.051858 H        1 UNL1     0.0691
     38 H         6.1304   5.064942   -1.92642 H        1 UNL1     0.0385
     39 H         5.487403   6.480429   -2.781693 H        1 UNL1     0.0385
     40 H         4.445185   4.302639   -3.516785 H        1 UNL1     0.0789
     41 H         2.945625   4.891563   -5.111812 H        1 UNL1     0.0623
     42 H         1.048226   6.247434   -5.901542 H        1 UNL1     0.0654
     43 H         0.560195   7.881773   -1.959443 H        1 UNL1     0.0654
     44 H         2.405718   6.528454   -1.141806 H        1 UNL1     0.0623
     45 H         -1.054676   7.885516   -3.842984 H        1 UNL1     0.2921
     46 H         3.55589   7.548722   1.669291 H        1 UNL1     0.2922
     47 H         1.153493   2.418051   0.241877 H        1 UNL1     0.2126
     48 H         0.440684   -2.027481   -0.05558 H        1 UNL1     0.2101
     49 H         -1.257391   0.392217   2.699603 H        1 UNL1     0.2100
     50 H         3.167886   -1.087689   3.781828 H        1 UNL1     0.2102
@<TRIPOS>BOND
     1     1     2    1
     2     1     6    1
     3     2     3    1
     4     3     4    1
     5     3    29    1
     6     3    33    1
     7     4     5    1
     8     5     6    1
     9     5     7    1
    10     5    35    1
    11     7     8    1
    12     8     9   ar
    13     8    13   ar
    14     9    10   ar
    15     9    36    1
    16    10    11   ar
    17    10    26    1
    18    11    12   ar
    19    11    14    1
    20    12    13   ar
    21    12    17    1
    22    13    37    1
    23    14    15    1
    24    14    25    2
    25    15    16    1
    26    15    38    1
    27    15    39    1
    28    16    17    1
    29    16    18    1
    30    16    40    1
    31    18    19   ar
    32    18    23   ar
    33    19    20   ar
    34    19    41    1
    35    20    21   ar
    36    20    42    1
    37    21    22   ar
    38    21    24    1
    39    22    23   ar
    40    22    43    1
    41    23    44    1
    42    24    45    1
    43    26    46    1
    44    27    47    1
    45    28    48    1
    46    29    49    1
    47    30    50    1
    48     1    31    1
    49     1    27    1
    50     2    32    1
    51     2    28    1
    52     4    34    1
    53     4    30    1
