@<TRIPOS>MOLECULE
*****
 50 53 0 0 0
SMALL
GASTEIGER

@<TRIPOS>ATOM
     1 C         -0.332613   -1.328609   1.701462 C.3        1 UNL1     0.1889
     2 C         -0.462356   -0.975518   0.195329 C.3        1 UNL1     0.1342
     3 C         -1.902909   -0.963211   -0.338636 C.3        1 UNL1     0.1174
     4 C         -2.789341   -2.02274   0.320722 C.3        1 UNL1     0.1456
     5 C         -2.638535   -2.048237   1.852705 C.3        1 UNL1     0.2326
     6 O         -1.27378   -2.266074   2.203217 O.3        1 UNL1     -0.3076
     7 O         -3.214046   -0.90139   2.50451 O.3        1 UNL1     -0.4605
     8 C         -3.724201   -1.117067   3.772088 C.ar        1 UNL1     0.1310
     9 C         -4.540353   -2.190328   4.145327 C.ar        1 UNL1     0.0226
     10 C         -4.993797   -2.330921   5.46234 C.ar        1 UNL1     0.1343
     11 C         -4.622167   -1.413696   6.444394 C.ar        1 UNL1     0.1007
     12 C         -3.841219   -0.315347   6.07489 C.ar        1 UNL1     0.1389
     13 C         -3.38759   -0.172771   4.750003 C.ar        1 UNL1     0.0229
     14 C         -5.003349   -1.559718   7.868308 C.2        1 UNL1     0.1740
     15 C         -4.335097   -0.611305   8.819886 C.3        1 UNL1     0.0520
     16 C         -4.265989   0.760729   8.163605 C.3        1 UNL1     0.1322
     17 O         -3.506904   0.704185   6.935735 O.3        1 UNL1     -0.4828
     18 C         -5.625414   1.452708   8.03769 C.ar        1 UNL1     -0.0067
     19 C         -6.004202   2.015462   6.80155 C.ar        1 UNL1     -0.0516
     20 C         -7.219642   2.696597   6.664714 C.ar        1 UNL1     -0.0198
     21 C         -8.059813   2.827888   7.755907 C.ar        1 UNL1     0.1169
     22 C         -7.729801   2.255732   8.977614 C.ar        1 UNL1     -0.0198
     23 C         -6.522897   1.558643   9.109928 C.ar        1 UNL1     -0.0516
     24 O         -9.217679   3.530517   7.594473 O.3        1 UNL1     -0.5068
     25 O         -5.752013   -2.441675   8.28079 O.2        1 UNL1     -0.2917
     26 O         -5.787878   -3.399507   5.760909 O.3        1 UNL1     -0.5058
     27 O         -0.227975   -0.19047   2.541984 O.3        1 UNL1     -0.3648
     28 O         0.26877   -1.953711   -0.567101 O.3        1 UNL1     -0.3841
     29 O         -2.460647   0.350289   -0.262604 O.3        1 UNL1     -0.3863
     30 O         -2.441263   -3.323403   -0.201586 O.3        1 UNL1     -0.3829
     31 H         0.62809   -1.841301   1.820945 H        1 UNL1     0.0937
     32 H         0.0   0.0   0.0 H        1 UNL1     0.0671
     33 H         -1.865284   -1.202616   -1.410545 H        1 UNL1     0.0649
     34 H         -3.839363   -1.844576   0.063597 H        1 UNL1     0.0683
     35 H         -3.193238   -2.944249   2.158231 H        1 UNL1     0.1085
     36 H         -4.818278   -2.96708   3.441385 H        1 UNL1     0.0691
     37 H         -2.781726   0.691871   4.487677 H        1 UNL1     0.0691
     38 H         -3.332705   -1.001129   9.026706 H        1 UNL1     0.0385
     39 H         -4.895627   -0.59248   9.760752 H        1 UNL1     0.0385
     40 H         -3.671525   1.406067   8.824415 H        1 UNL1     0.0789
     41 H         -5.358069   1.933977   5.932342 H        1 UNL1     0.0623
     42 H         -7.495022   3.136427   5.709347 H        1 UNL1     0.0654
     43 H         -8.387332   2.339592   9.834662 H        1 UNL1     0.0654
     44 H         -6.301952   1.115316   10.076101 H        1 UNL1     0.0623
     45 H         -8.991846   4.43815   7.33386 H        1 UNL1     0.2921
     46 H         -5.384115   -3.91196   6.479087 H        1 UNL1     0.2922
     47 H         0.51504   0.36345   2.264565 H        1 UNL1     0.2126
     48 H         1.201528   -1.887734   -0.285424 H        1 UNL1     0.2101
     49 H         -2.021559   0.932822   -0.902644 H        1 UNL1     0.2100
     50 H         -2.674013   -3.338382   -1.153067 H        1 UNL1     0.2102
@<TRIPOS>BOND
     1     1     2    1
     2     1     6    1
     3     2     3    1
     4     3     4    1
     5     3    29    1
     6     3    33    1
     7     4     5    1
     8     5     6    1
     9     5     7    1
    10     5    35    1
    11     7     8    1
    12     8     9   ar
    13     8    13   ar
    14     9    10   ar
    15     9    36    1
    16    10    11   ar
    17    10    26    1
    18    11    12   ar
    19    11    14    1
    20    12    13   ar
    21    12    17    1
    22    13    37    1
    23    14    15    1
    24    14    25    2
    25    15    16    1
    26    15    38    1
    27    15    39    1
    28    16    17    1
    29    16    18    1
    30    16    40    1
    31    18    19   ar
    32    18    23   ar
    33    19    20   ar
    34    19    41    1
    35    20    21   ar
    36    20    42    1
    37    21    22   ar
    38    21    24    1
    39    22    23   ar
    40    22    43    1
    41    23    44    1
    42    24    45    1
    43    26    46    1
    44    27    47    1
    45    28    48    1
    46    29    49    1
    47    30    50    1
    48     1    31    1
    49     1    27    1
    50     2    32    1
    51     2    28    1
    52     4    34    1
    53     4    30    1
