@<TRIPOS>MOLECULE
*****
 50 53 0 0 0
SMALL
GASTEIGER

@<TRIPOS>ATOM
     1 C         0.325093   -0.62114   2.068648 C.3        1 UNL1     0.1889
     2 C         0.020402   -0.93192   0.578507 C.3        1 UNL1     0.1342
     3 C         -1.288542   -1.69964   0.338224 C.3        1 UNL1     0.1174
     4 C         -1.601417   -2.7024   1.451642 C.3        1 UNL1     0.1456
     5 C         -1.421979   -2.0992   2.856746 C.3        1 UNL1     0.2326
     6 O         -0.094176   -1.60174   3.006216 O.3        1 UNL1     -0.3076
     7 O         -2.430721   -1.131068   3.198038 O.3        1 UNL1     -0.4605
     8 C         -2.765779   -1.051289   4.537777 C.ar        1 UNL1     0.1310
     9 C         -3.015701   -2.142453   5.376943 C.ar        1 UNL1     0.0226
     10 C         -3.331998   -1.958697   6.728273 C.ar        1 UNL1     0.1343
     11 C         -3.382726   -0.679027   7.279373 C.ar        1 UNL1     0.1007
     12 C         -3.17538   0.420314   6.441971 C.ar        1 UNL1     0.1389
     13 C         -2.859962   0.235397   5.082652 C.ar        1 UNL1     0.0229
     14 C         -3.629516   -0.431314   8.718778 C.2        1 UNL1     0.1740
     15 C         -3.428634   0.983016   9.177979 C.3        1 UNL1     0.0520
     16 C         -3.986789   1.918715   8.114546 C.3        1 UNL1     0.1322
     17 O         -3.307371   1.726019   6.854257 O.3        1 UNL1     -0.4828
     18 C         -5.514417   1.903206   8.020543 C.ar        1 UNL1     -0.0067
     19 C         -6.129285   1.766847   6.758974 C.ar        1 UNL1     -0.0516
     20 C         -7.523218   1.796364   6.632311 C.ar        1 UNL1     -0.0198
     21 C         -8.311316   1.968648   7.756165 C.ar        1 UNL1     0.1169
     22 C         -7.736352   2.072129   9.016144 C.ar        1 UNL1     -0.0198
     23 C         -6.343126   2.024139   9.14527 C.ar        1 UNL1     -0.0516
     24 O         -9.663633   2.030361   7.589335 O.3        1 UNL1     -0.5068
     25 O         -3.902564   -1.320549   9.520769 O.2        1 UNL1     -0.2917
     26 O         -3.565793   -3.06451   7.49254 O.3        1 UNL1     -0.5058
     27 O         -0.065722   0.683715   2.46539 O.3        1 UNL1     -0.3648
     28 O         1.091843   -1.736661   0.052092 O.3        1 UNL1     -0.3841
     29 O         -2.367326   -0.796588   0.087517 O.3        1 UNL1     -0.3863
     30 O         -0.725934   -3.843543   1.321212 O.3        1 UNL1     -0.3829
     31 H         1.415776   -0.618787   2.171038 H        1 UNL1     0.0937
     32 H         -0.0   0.0   0.0 H        1 UNL1     0.0671
     33 H         -1.17208   -2.279383   -0.588088 H        1 UNL1     0.0649
     34 H         -2.627404   -3.071671   1.344917 H        1 UNL1     0.0683
     35 H         -1.517154   -2.961258   3.528814 H        1 UNL1     0.1085
     36 H         -2.937001   -3.1643   5.022323 H        1 UNL1     0.0691
     37 H         -2.704116   1.107727   4.451586 H        1 UNL1     0.0691
     38 H         -2.352955   1.137254   9.314552 H        1 UNL1     0.0385
     39 H         -3.919474   1.118676   10.147747 H        1 UNL1     0.0385
     40 H         -3.724465   2.942404   8.414157 H        1 UNL1     0.0789
     41 H         -5.532451   1.639625   5.860501 H        1 UNL1     0.0623
     42 H         -7.98501   1.702093   5.65258 H        1 UNL1     0.0654
     43 H         -8.34472   2.192265   9.904606 H        1 UNL1     0.0654
     44 H         -5.92838   2.09748   10.145996 H        1 UNL1     0.0623
     45 H         -9.86759   2.785912   7.014651 H        1 UNL1     0.2921
     46 H         -2.961872   -3.066513   8.251939 H        1 UNL1     0.2922
     47 H         0.350059   1.345588   1.895381 H        1 UNL1     0.2126
     48 H         1.905345   -1.201195   0.124358 H        1 UNL1     0.2101
     49 H         -2.244569   -0.366868   -0.773915 H        1 UNL1     0.2100
     50 H         -0.948516   -4.30014   0.483543 H        1 UNL1     0.2102
@<TRIPOS>BOND
     1     1     2    1
     2     1     6    1
     3     2     3    1
     4     3     4    1
     5     3    29    1
     6     3    33    1
     7     4     5    1
     8     5     6    1
     9     5     7    1
    10     5    35    1
    11     7     8    1
    12     8     9   ar
    13     8    13   ar
    14     9    10   ar
    15     9    36    1
    16    10    11   ar
    17    10    26    1
    18    11    12   ar
    19    11    14    1
    20    12    13   ar
    21    12    17    1
    22    13    37    1
    23    14    15    1
    24    14    25    2
    25    15    16    1
    26    15    38    1
    27    15    39    1
    28    16    17    1
    29    16    18    1
    30    16    40    1
    31    18    19   ar
    32    18    23   ar
    33    19    20   ar
    34    19    41    1
    35    20    21   ar
    36    20    42    1
    37    21    22   ar
    38    21    24    1
    39    22    23   ar
    40    22    43    1
    41    23    44    1
    42    24    45    1
    43    26    46    1
    44    27    47    1
    45    28    48    1
    46    29    49    1
    47    30    50    1
    48     1    31    1
    49     1    27    1
    50     2    32    1
    51     2    28    1
    52     4    34    1
    53     4    30    1
