@<TRIPOS>MOLECULE
*****
 50 53 0 0 0
SMALL
GASTEIGER

@<TRIPOS>ATOM
     1 C         1.505101   0.060855   -1.581699 C.3        1 UNL1     0.1889
     2 C         1.038581   -0.319648   -0.150784 C.3        1 UNL1     0.1342
     3 C         1.907809   0.251288   0.980118 C.3        1 UNL1     0.1174
     4 C         3.390843   0.326527   0.608545 C.3        1 UNL1     0.1456
     5 C         3.61931   0.931994   -0.788444 C.3        1 UNL1     0.2326
     6 O         2.908048   0.177818   -1.767317 O.3        1 UNL1     -0.3076
     7 O         3.345935   2.343519   -0.853116 O.3        1 UNL1     -0.4605
     8 C         2.047169   2.723247   -0.565812 C.ar        1 UNL1     0.1310
     9 C         0.913822   2.352496   -1.297502 C.ar        1 UNL1     0.0226
     10 C         -0.364749   2.775703   -0.915333 C.ar        1 UNL1     0.1343
     11 C         -0.543558   3.561102   0.222655 C.ar        1 UNL1     0.1007
     12 C         0.584506   3.971686   0.93797 C.ar        1 UNL1     0.1389
     13 C         1.870238   3.548205   0.55198 C.ar        1 UNL1     0.0229
     14 C         -1.878749   3.9667   0.719555 C.2        1 UNL1     0.1740
     15 C         -1.898425   4.616054   2.072146 C.3        1 UNL1     0.0520
     16 C         -0.705671   5.556941   2.172275 C.3        1 UNL1     0.1322
     17 O         0.533763   4.832801   2.009498 O.3        1 UNL1     -0.4828
     18 C         -0.830611   6.805628   1.295978 C.ar        1 UNL1     -0.0067
     19 C         -2.111113   7.27639   0.939733 C.ar        1 UNL1     -0.0516
     20 C         -2.260323   8.387353   0.101007 C.ar        1 UNL1     -0.0198
     21 C         -1.139385   9.030322   -0.392873 C.ar        1 UNL1     0.1169
     22 C         0.134722   8.610767   -0.033065 C.ar        1 UNL1     -0.0198
     23 C         0.284093   7.511128   0.820479 C.ar        1 UNL1     -0.0516
     24 O         -1.323684   10.085449   -1.23735 O.3        1 UNL1     -0.5068
     25 O         -2.924285   3.72698   0.121329 O.2        1 UNL1     -0.2917
     26 O         -1.428652   2.380146   -1.672452 O.3        1 UNL1     -0.5058
     27 O         0.810356   1.171545   -2.126203 O.3        1 UNL1     -0.3648
     28 O         1.06478   -1.753921   -0.0288 O.3        1 UNL1     -0.3841
     29 O         1.387786   1.501248   1.437619 O.3        1 UNL1     -0.3863
     30 O         3.954114   -1.00301   0.635895 O.3        1 UNL1     -0.3829
     31 H         1.22944   -0.775472   -2.233348 H        1 UNL1     0.0937
     32 H         0.0   0.0   0.0 H        1 UNL1     0.0671
     33 H         1.829611   -0.429321   1.839406 H        1 UNL1     0.0649
     34 H         3.933268   0.919827   1.352971 H        1 UNL1     0.0683
     35 H         4.68821   0.769691   -0.975499 H        1 UNL1     0.1085
     36 H         0.980563   1.697509   -2.159278 H        1 UNL1     0.0691
     37 H         2.732375   3.882627   1.12502 H        1 UNL1     0.0691
     38 H         -1.837931   3.820437   2.822386 H        1 UNL1     0.0385
     39 H         -2.851225   5.13978   2.205043 H        1 UNL1     0.0385
     40 H         -0.672663   5.928963   3.205246 H        1 UNL1     0.0789
     41 H         -3.00661   6.783506   1.306886 H        1 UNL1     0.0623
     42 H         -3.253023   8.733481   -0.176037 H        1 UNL1     0.0654
     43 H         1.019192   9.116247   -0.402003 H        1 UNL1     0.0654
     44 H         1.294137   7.217187   1.089282 H        1 UNL1     0.0623
     45 H         -1.957696   9.821762   -1.923801 H        1 UNL1     0.2921
     46 H         -1.299459   1.461622   -1.957117 H        1 UNL1     0.2922
     47 H         -0.144937   1.033258   -2.061773 H        1 UNL1     0.2126
     48 H         0.316573   -2.09324   -0.556797 H        1 UNL1     0.2101
     49 H         1.482256   1.565101   2.401358 H        1 UNL1     0.2100
     50 H         4.081125   -1.257423   1.573368 H        1 UNL1     0.2102
@<TRIPOS>BOND
     1     1     2    1
     2     1     6    1
     3     2     3    1
     4     3     4    1
     5     3    29    1
     6     3    33    1
     7     4     5    1
     8     5     6    1
     9     5     7    1
    10     5    35    1
    11     7     8    1
    12     8     9   ar
    13     8    13   ar
    14     9    10   ar
    15     9    36    1
    16    10    11   ar
    17    10    26    1
    18    11    12   ar
    19    11    14    1
    20    12    13   ar
    21    12    17    1
    22    13    37    1
    23    14    15    1
    24    14    25    2
    25    15    16    1
    26    15    38    1
    27    15    39    1
    28    16    17    1
    29    16    18    1
    30    16    40    1
    31    18    19   ar
    32    18    23   ar
    33    19    20   ar
    34    19    41    1
    35    20    21   ar
    36    20    42    1
    37    21    22   ar
    38    21    24    1
    39    22    23   ar
    40    22    43    1
    41    23    44    1
    42    24    45    1
    43    26    46    1
    44    27    47    1
    45    28    48    1
    46    29    49    1
    47    30    50    1
    48     1    31    1
    49     1    27    1
    50     2    32    1
    51     2    28    1
    52     4    34    1
    53     4    30    1
