@<TRIPOS>MOLECULE
*****
 50 53 0 0 0
SMALL
GASTEIGER

@<TRIPOS>ATOM
     1 C         -0.393981   1.82388   1.135361 C.3        1 UNL1     0.1889
     2 C         0.520648   0.931762   0.25359 C.3        1 UNL1     0.1342
     3 C         1.881143   0.590867   0.880733 C.3        1 UNL1     0.1174
     4 C         2.445001   1.731608   1.731552 C.3        1 UNL1     0.1456
     5 C         1.395103   2.332002   2.684234 C.3        1 UNL1     0.2326
     6 O         0.268052   2.788689   1.93988 O.3        1 UNL1     -0.3076
     7 O         1.039264   1.456856   3.769969 O.3        1 UNL1     -0.4605
     8 C         1.985393   1.314711   4.76905 C.ar        1 UNL1     0.1310
     9 C         1.792798   0.635244   5.976747 C.ar        1 UNL1     0.0226
     10 C         2.821371   0.531414   6.920759 C.ar        1 UNL1     0.1343
     11 C         4.076179   1.084681   6.669379 C.ar        1 UNL1     0.1007
     12 C         4.26808   1.800825   5.484855 C.ar        1 UNL1     0.1389
     13 C         3.232889   1.907347   4.536982 C.ar        1 UNL1     0.0229
     14 C         5.22316   0.932935   7.594345 C.2        1 UNL1     0.1740
     15 C         6.549019   1.396066   7.065993 C.3        1 UNL1     0.0520
     16 C         6.333649   2.68789   6.289615 C.3        1 UNL1     0.1322
     17 O         5.427756   2.47687   5.18422 O.3        1 UNL1     -0.4828
     18 C         5.986448   3.887795   7.174152 C.ar        1 UNL1     -0.0067
     19 C         4.777992   4.581259   6.957461 C.ar        1 UNL1     -0.0516
     20 C         4.452091   5.71124   7.716995 C.ar        1 UNL1     -0.0198
     21 C         5.327649   6.16111   8.689026 C.ar        1 UNL1     0.1169
     22 C         6.509737   5.479812   8.948525 C.ar        1 UNL1     -0.0198
     23 C         6.827281   4.339008   8.201673 C.ar        1 UNL1     -0.0516
     24 O         4.994026   7.286975   9.382945 O.3        1 UNL1     -0.5068
     25 O         5.137789   0.393545   8.694461 O.2        1 UNL1     -0.2917
     26 O         2.568474   -0.143646   8.079173 O.3        1 UNL1     -0.5058
     27 O         -1.351945   1.089077   1.880449 O.3        1 UNL1     -0.3648
     28 O         0.779836   1.624587   -0.98153 O.3        1 UNL1     -0.3841
     29 O         1.816559   -0.648397   1.589384 O.3        1 UNL1     -0.3863
     30 O         2.932589   2.775629   0.860939 O.3        1 UNL1     -0.3829
     31 H         -0.994229   2.431165   0.449077 H        1 UNL1     0.0937
     32 H         0.0   -0.0   0.0 H        1 UNL1     0.0671
     33 H         2.594834   0.422095   0.062271 H        1 UNL1     0.0649
     34 H         3.300995   1.375076   2.315127 H        1 UNL1     0.0683
     35 H         1.888399   3.222123   3.094383 H        1 UNL1     0.1085
     36 H         0.8582   0.135712   6.207214 H        1 UNL1     0.0691
     37 H         3.407347   2.471233   3.623149 H        1 UNL1     0.0691
     38 H         6.941184   0.60587   6.416898 H        1 UNL1     0.0385
     39 H         7.243131   1.526944   7.903166 H        1 UNL1     0.0385
     40 H         7.290711   2.943849   5.815234 H        1 UNL1     0.0789
     41 H         4.078151   4.253558   6.194254 H        1 UNL1     0.0623
     42 H         3.522748   6.244366   7.532308 H        1 UNL1     0.0654
     43 H         7.195518   5.814678   9.717602 H        1 UNL1     0.0654
     44 H         7.754047   3.82529   8.438408 H        1 UNL1     0.0623
     45 H         5.811389   7.710496   9.691597 H        1 UNL1     0.2921
     46 H         1.706017   0.128572   8.430564 H        1 UNL1     0.2922
     47 H         -1.926696   1.691448   2.373065 H        1 UNL1     0.2126
     48 H         1.679089   1.367824   -1.262864 H        1 UNL1     0.2101
     49 H         1.323174   -1.301421   1.067919 H        1 UNL1     0.2100
     50 H         2.296995   2.87324   0.121882 H        1 UNL1     0.2102
@<TRIPOS>BOND
     1     1     2    1
     2     1     6    1
     3     2     3    1
     4     3     4    1
     5     3    29    1
     6     3    33    1
     7     4     5    1
     8     5     6    1
     9     5     7    1
    10     5    35    1
    11     7     8    1
    12     8     9   ar
    13     8    13   ar
    14     9    10   ar
    15     9    36    1
    16    10    11   ar
    17    10    26    1
    18    11    12   ar
    19    11    14    1
    20    12    13   ar
    21    12    17    1
    22    13    37    1
    23    14    15    1
    24    14    25    2
    25    15    16    1
    26    15    38    1
    27    15    39    1
    28    16    17    1
    29    16    18    1
    30    16    40    1
    31    18    19   ar
    32    18    23   ar
    33    19    20   ar
    34    19    41    1
    35    20    21   ar
    36    20    42    1
    37    21    22   ar
    38    21    24    1
    39    22    23   ar
    40    22    43    1
    41    23    44    1
    42    24    45    1
    43    26    46    1
    44    27    47    1
    45    28    48    1
    46    29    49    1
    47    30    50    1
    48     1    31    1
    49     1    27    1
    50     2    32    1
    51     2    28    1
    52     4    34    1
    53     4    30    1
