@<TRIPOS>MOLECULE
*****
 50 53 0 0 0
SMALL
GASTEIGER

@<TRIPOS>ATOM
     1 C         2.167047   0.086524   -0.259277 C.3        1 UNL1     0.1889
     2 C         0.899151   -0.04269   0.62711 C.3        1 UNL1     0.1342
     3 C         0.784538   1.010551   1.73977 C.3        1 UNL1     0.1174
     4 C         2.142405   1.403969   2.326744 C.3        1 UNL1     0.1456
     5 C         3.196545   1.683498   1.239998 C.3        1 UNL1     0.2326
     6 O         3.340609   0.54225   0.39758 O.3        1 UNL1     -0.3076
     7 O         2.957477   2.899916   0.508907 O.3        1 UNL1     -0.4605
     8 C         3.2095   4.076657   1.19103 C.ar        1 UNL1     0.1310
     9 C         2.564664   4.488373   2.362344 C.ar        1 UNL1     0.0226
     10 C         2.903472   5.693092   2.98985 C.ar        1 UNL1     0.1343
     11 C         3.912918   6.504642   2.473858 C.ar        1 UNL1     0.1007
     12 C         4.535653   6.124184   1.282121 C.ar        1 UNL1     0.1389
     13 C         4.192968   4.914096   0.649914 C.ar        1 UNL1     0.0229
     14 C         4.36889   7.745649   3.141797 C.2        1 UNL1     0.1740
     15 C         5.607876   8.371891   2.572338 C.3        1 UNL1     0.0520
     16 C         5.541168   8.277809   1.054228 C.3        1 UNL1     0.1322
     17 O         5.465454   6.899302   0.628723 O.3        1 UNL1     -0.4828
     18 C         4.488774   9.194418   0.425722 C.ar        1 UNL1     -0.0067
     19 C         4.513954   10.575139   0.710659 C.ar        1 UNL1     -0.0516
     20 C         3.538255   11.433851   0.190478 C.ar        1 UNL1     -0.0198
     21 C         2.530179   10.924119   -0.608136 C.ar        1 UNL1     0.1169
     22 C         2.49781   9.574413   -0.933843 C.ar        1 UNL1     -0.0198
     23 C         3.483964   8.718532   -0.428844 C.ar        1 UNL1     -0.0516
     24 O         1.575824   11.784503   -1.065679 O.3        1 UNL1     -0.5068
     25 O         3.834423   8.208497   4.146089 O.2        1 UNL1     -0.2917
     26 O         2.235891   6.037569   4.128821 O.3        1 UNL1     -0.5058
     27 O         1.940075   0.78699   -1.471968 O.3        1 UNL1     -0.3648
     28 O         0.915469   -1.33529   1.26085 O.3        1 UNL1     -0.3841
     29 O         0.026358   2.137339   1.295197 O.3        1 UNL1     -0.3863
     30 O         2.620215   0.335598   3.172894 O.3        1 UNL1     -0.3829
     31 H         2.429991   -0.927766   -0.578893 H        1 UNL1     0.0937
     32 H         -0.0   0.0   0.0 H        1 UNL1     0.0671
     33 H         0.199566   0.57027   2.55933 H        1 UNL1     0.0649
     34 H         2.032937   2.290626   2.960982 H        1 UNL1     0.0683
     35 H         4.133921   1.786245   1.800933 H        1 UNL1     0.1085
     36 H         1.810683   3.875333   2.843815 H        1 UNL1     0.0691
     37 H         4.691826   4.64115   -0.27752 H        1 UNL1     0.0691
     38 H         6.468451   7.819728   2.964834 H        1 UNL1     0.0385
     39 H         5.678736   9.408093   2.920249 H        1 UNL1     0.0385
     40 H         6.505168   8.632654   0.665243 H        1 UNL1     0.0789
     41 H         5.289504   10.998346   1.342378 H        1 UNL1     0.0623
     42 H         3.561665   12.49472   0.427164 H        1 UNL1     0.0654
     43 H         1.721512   9.167247   -1.570622 H        1 UNL1     0.0654
     44 H         3.433942   7.671637   -0.712313 H        1 UNL1     0.0623
     45 H         1.894935   12.692568   -0.937991 H        1 UNL1     0.2921
     46 H         1.764061   5.263212   4.474017 H        1 UNL1     0.2922
     47 H         2.512722   0.440994   -2.170697 H        1 UNL1     0.2126
     48 H         1.523844   -1.894374   0.740237 H        1 UNL1     0.2101
     49 H         0.585301   2.719198   0.755923 H        1 UNL1     0.2100
     50 H         3.347312   -0.120674   2.700816 H        1 UNL1     0.2102
@<TRIPOS>BOND
     1     1     2    1
     2     1     6    1
     3     2     3    1
     4     3     4    1
     5     3    29    1
     6     3    33    1
     7     4     5    1
     8     5     6    1
     9     5     7    1
    10     5    35    1
    11     7     8    1
    12     8     9   ar
    13     8    13   ar
    14     9    10   ar
    15     9    36    1
    16    10    11   ar
    17    10    26    1
    18    11    12   ar
    19    11    14    1
    20    12    13   ar
    21    12    17    1
    22    13    37    1
    23    14    15    1
    24    14    25    2
    25    15    16    1
    26    15    38    1
    27    15    39    1
    28    16    17    1
    29    16    18    1
    30    16    40    1
    31    18    19   ar
    32    18    23   ar
    33    19    20   ar
    34    19    41    1
    35    20    21   ar
    36    20    42    1
    37    21    22   ar
    38    21    24    1
    39    22    23   ar
    40    22    43    1
    41    23    44    1
    42    24    45    1
    43    26    46    1
    44    27    47    1
    45    28    48    1
    46    29    49    1
    47    30    50    1
    48     1    31    1
    49     1    27    1
    50     2    32    1
    51     2    28    1
    52     4    34    1
    53     4    30    1
