@<TRIPOS>MOLECULE
*****
 50 53 0 0 0
SMALL
GASTEIGER

@<TRIPOS>ATOM
     1 C         -0.330177   -1.327129   1.70309 C.3        1 UNL1     0.1889
     2 C         -0.461572   -0.975607   0.196734 C.3        1 UNL1     0.1342
     3 C         -1.902642   -0.964707   -0.335868 C.3        1 UNL1     0.1174
     4 C         -2.787797   -2.024125   0.325383 C.3        1 UNL1     0.1456
     5 C         -2.635513   -2.048016   1.857245 C.3        1 UNL1     0.2326
     6 O         -1.270291   -2.264673   2.206669 O.3        1 UNL1     -0.3076
     7 O         -3.211103   -0.900877   2.508466 O.3        1 UNL1     -0.4605
     8 C         -3.719917   -1.115612   3.776743 C.ar        1 UNL1     0.1310
     9 C         -4.534967   -2.18906   4.151846 C.ar        1 UNL1     0.0226
     10 C         -4.987076   -2.328621   5.469428 C.ar        1 UNL1     0.1343
     11 C         -4.615166   -1.410132   6.450194 C.ar        1 UNL1     0.1007
     12 C         -3.835333   -0.311617   6.078832 C.ar        1 UNL1     0.1389
     13 C         -3.383048   -0.170081   4.753375 C.ar        1 UNL1     0.0229
     14 C         -4.994909   -1.554963   7.874614 C.2        1 UNL1     0.1740
     15 C         -4.326427   -0.60511   8.824592 C.3        1 UNL1     0.0520
     16 C         -4.258895   0.7663   8.166843 C.3        1 UNL1     0.1322
     17 O         -3.500924   0.709029   6.93832 O.3        1 UNL1     -0.4828
     18 C         -5.618921   1.4572   8.041498 C.ar        1 UNL1     -0.0067
     19 C         -5.999263   2.018423   6.80514 C.ar        1 UNL1     -0.0516
     20 C         -7.215307   2.698569   6.66875 C.ar        1 UNL1     -0.0198
     21 C         -8.054545   2.83039   7.760597 C.ar        1 UNL1     0.1169
     22 C         -7.722985   2.259715   8.982578 C.ar        1 UNL1     -0.0198
     23 C         -6.515471   1.563606   9.11447 C.ar        1 UNL1     -0.0516
     24 O         -9.213053   3.532044   7.599532 O.3        1 UNL1     -0.5068
     25 O         -5.742567   -2.43702   8.288701 O.2        1 UNL1     -0.2917
     26 O         -5.780129   -3.397456   5.769836 O.3        1 UNL1     -0.5058
     27 O         -0.225434   -0.188096   2.542387 O.3        1 UNL1     -0.3648
     28 O         0.269424   -1.954106   -0.565427 O.3        1 UNL1     -0.3841
     29 O         -2.46111   0.348526   -0.260601 O.3        1 UNL1     -0.3863
     30 O         -2.439421   -3.325091   -0.195973 O.3        1 UNL1     -0.3829
     31 H         0.630952   -1.839116   1.822162 H        1 UNL1     0.0937
     32 H         0.0   0.0   0.0 H        1 UNL1     0.0671
     33 H         -1.865893   -1.205148   -1.407575 H        1 UNL1     0.0649
     34 H         -3.838172   -1.846856   0.069084 H        1 UNL1     0.0683
     35 H         -3.189377   -2.944064   2.164185 H        1 UNL1     0.1085
     36 H         -4.81301   -2.966727   3.448961 H        1 UNL1     0.0691
     37 H         -2.778036   0.694715   4.489594 H        1 UNL1     0.0691
     38 H         -3.323569   -0.994022   9.03087 H        1 UNL1     0.0385
     39 H         -4.886086   -0.585713   9.765966 H        1 UNL1     0.0385
     40 H         -3.664262   1.412729   8.826434 H        1 UNL1     0.0789
     41 H         -5.35389   1.9365   5.935408 H        1 UNL1     0.0623
     42 H         -7.491892   3.137228   5.713192 H        1 UNL1     0.0654
     43 H         -8.37977   2.343993   9.840156 H        1 UNL1     0.0654
     44 H         -6.293309   1.121422   10.080888 H        1 UNL1     0.0623
     45 H         -8.988134   4.439256   7.336673 H        1 UNL1     0.2921
     46 H         -5.374686   -3.90962   6.487274 H        1 UNL1     0.2922
     47 H         0.517083   0.365914   2.263819 H        1 UNL1     0.2126
     48 H         1.20223   -1.888013   -0.283938 H        1 UNL1     0.2101
     49 H         -2.02293   0.930716   -0.901575 H        1 UNL1     0.2100
     50 H         -2.673069   -3.341152   -1.147216 H        1 UNL1     0.2102
@<TRIPOS>BOND
     1     1     2    1
     2     1     6    1
     3     2     3    1
     4     3     4    1
     5     3    29    1
     6     3    33    1
     7     4     5    1
     8     5     6    1
     9     5     7    1
    10     5    35    1
    11     7     8    1
    12     8     9   ar
    13     8    13   ar
    14     9    10   ar
    15     9    36    1
    16    10    11   ar
    17    10    26    1
    18    11    12   ar
    19    11    14    1
    20    12    13   ar
    21    12    17    1
    22    13    37    1
    23    14    15    1
    24    14    25    2
    25    15    16    1
    26    15    38    1
    27    15    39    1
    28    16    17    1
    29    16    18    1
    30    16    40    1
    31    18    19   ar
    32    18    23   ar
    33    19    20   ar
    34    19    41    1
    35    20    21   ar
    36    20    42    1
    37    21    22   ar
    38    21    24    1
    39    22    23   ar
    40    22    43    1
    41    23    44    1
    42    24    45    1
    43    26    46    1
    44    27    47    1
    45    28    48    1
    46    29    49    1
    47    30    50    1
    48     1    31    1
    49     1    27    1
    50     2    32    1
    51     2    28    1
    52     4    34    1
    53     4    30    1
