@<TRIPOS>MOLECULE
*****
 50 53 0 0 0
SMALL
GASTEIGER

@<TRIPOS>ATOM
     1 C         1.049704   -1.753419   -0.771004 C.3        1 UNL1     0.1889
     2 C         -0.217474   -0.866822   -0.636307 C.3        1 UNL1     0.1342
     3 C         -1.453766   -1.594559   -0.086356 C.3        1 UNL1     0.1174
     4 C         -1.534934   -3.053739   -0.541684 C.3        1 UNL1     0.1456
     5 C         -0.193854   -3.794684   -0.390455 C.3        1 UNL1     0.2326
     6 O         0.823767   -3.111488   -1.11885 O.3        1 UNL1     -0.3076
     7 O         0.166918   -4.053355   0.978578 O.3        1 UNL1     -0.4605
     8 C         0.900304   -5.204151   1.205163 C.ar        1 UNL1     0.1310
     9 C         0.620922   -6.463083   0.662634 C.ar        1 UNL1     0.0226
     10 C         1.435808   -7.567354   0.939128 C.ar        1 UNL1     0.1343
     11 C         2.564591   -7.434085   1.74655 C.ar        1 UNL1     0.1007
     12 C         2.83067   -6.191151   2.327154 C.ar        1 UNL1     0.1389
     13 C         2.009656   -5.081571   2.051114 C.ar        1 UNL1     0.0229
     14 C         3.506818   -8.547747   2.003681 C.2        1 UNL1     0.1740
     15 C         4.778823   -8.173008   2.705909 C.3        1 UNL1     0.0520
     16 C         4.448588   -7.158883   3.792396 C.3        1 UNL1     0.1322
     17 O         3.851817   -5.972993   3.222661 O.3        1 UNL1     -0.4828
     18 C         3.678019   -7.751429   4.974697 C.ar        1 UNL1     -0.0067
     19 C         2.521197   -7.096857   5.445347 C.ar        1 UNL1     -0.0516
     20 C         1.820089   -7.58579   6.554109 C.ar        1 UNL1     -0.0198
     21 C         2.268791   -8.721663   7.203945 C.ar        1 UNL1     0.1169
     22 C         3.385526   -9.407209   6.743763 C.ar        1 UNL1     -0.0198
     23 C         4.076188   -8.928929   5.623812 C.ar        1 UNL1     -0.0516
     24 O         1.582037   -9.146696   8.303089 O.3        1 UNL1     -0.5068
     25 O         3.321051   -9.69555   1.60805 O.2        1 UNL1     -0.2917
     26 O         1.107797   -8.767723   0.379566 O.3        1 UNL1     -0.5058
     27 O         1.941656   -1.635141   0.32591 O.3        1 UNL1     -0.3648
     28 O         -0.561947   -0.362457   -1.940017 O.3        1 UNL1     -0.3841
     29 O         -1.536119   -1.452366   1.333197 O.3        1 UNL1     -0.3863
     30 O         -1.934424   -3.095608   -1.928891 O.3        1 UNL1     -0.3829
     31 H         1.616403   -1.361793   -1.622802 H        1 UNL1     0.0937
     32 H         0.0   0.0   0.0 H        1 UNL1     0.0671
     33 H         -2.344925   -1.087986   -0.482512 H        1 UNL1     0.0649
     34 H         -2.306225   -3.581569   0.030073 H        1 UNL1     0.0683
     35 H         -0.361891   -4.752271   -0.899051 H        1 UNL1     0.1085
     36 H         -0.209502   -6.61954   -0.017098 H        1 UNL1     0.0691
     37 H         2.237676   -4.12505   2.516483 H        1 UNL1     0.0691
     38 H         5.455859   -7.745131   1.958867 H        1 UNL1     0.0385
     39 H         5.244751   -9.077507   3.111582 H        1 UNL1     0.0385
     40 H         5.402532   -6.811738   4.211921 H        1 UNL1     0.0789
     41 H         2.153849   -6.198299   4.958214 H        1 UNL1     0.0623
     42 H         0.936263   -7.065371   6.914703 H        1 UNL1     0.0654
     43 H         3.736846   -10.306184   7.236032 H        1 UNL1     0.0654
     44 H         4.938297   -9.495526   5.285313 H        1 UNL1     0.0623
     45 H         1.605243   -8.442046   8.970656 H        1 UNL1     0.2921
     46 H         1.858116   -9.098778   -0.138928 H        1 UNL1     0.2922
     47 H         2.192402   -0.709804   0.455281 H        1 UNL1     0.2126
     48 H         0.195369   0.175856   -2.240724 H        1 UNL1     0.2101
     49 H         -1.746541   -0.532813   1.561096 H        1 UNL1     0.2100
     50 H         -2.848281   -2.747999   -1.990101 H        1 UNL1     0.2102
@<TRIPOS>BOND
     1     1     2    1
     2     1     6    1
     3     2     3    1
     4     3     4    1
     5     3    29    1
     6     3    33    1
     7     4     5    1
     8     5     6    1
     9     5     7    1
    10     5    35    1
    11     7     8    1
    12     8     9   ar
    13     8    13   ar
    14     9    10   ar
    15     9    36    1
    16    10    11   ar
    17    10    26    1
    18    11    12   ar
    19    11    14    1
    20    12    13   ar
    21    12    17    1
    22    13    37    1
    23    14    15    1
    24    14    25    2
    25    15    16    1
    26    15    38    1
    27    15    39    1
    28    16    17    1
    29    16    18    1
    30    16    40    1
    31    18    19   ar
    32    18    23   ar
    33    19    20   ar
    34    19    41    1
    35    20    21   ar
    36    20    42    1
    37    21    22   ar
    38    21    24    1
    39    22    23   ar
    40    22    43    1
    41    23    44    1
    42    24    45    1
    43    26    46    1
    44    27    47    1
    45    28    48    1
    46    29    49    1
    47    30    50    1
    48     1    31    1
    49     1    27    1
    50     2    32    1
    51     2    28    1
    52     4    34    1
    53     4    30    1
