@<TRIPOS>MOLECULE
*****
 50 53 0 0 0
SMALL
GASTEIGER

@<TRIPOS>ATOM
     1 C         0.656218   -1.980895   0.645164 C.3        1 UNL1     0.1889
     2 C         -0.253582   -1.048599   -0.199245 C.3        1 UNL1     0.1342
     3 C         -1.760417   -1.250578   0.022383 C.3        1 UNL1     0.1174
     4 C         -2.130249   -2.711502   0.290785 C.3        1 UNL1     0.1456
     5 C         -1.202018   -3.374989   1.324485 C.3        1 UNL1     0.2326
     6 O         0.152721   -3.286049   0.889007 O.3        1 UNL1     -0.3076
     7 O         -1.39831   -2.890569   2.665428 O.3        1 UNL1     -0.4605
     8 C         -1.164254   -3.801816   3.679516 C.ar        1 UNL1     0.1310
     9 C         -1.623271   -5.12319   3.703467 C.ar        1 UNL1     0.0226
     10 C         -1.318067   -5.976137   4.770816 C.ar        1 UNL1     0.1343
     11 C         -0.525683   -5.535056   5.829785 C.ar        1 UNL1     0.1007
     12 C         -0.095726   -4.205444   5.836986 C.ar        1 UNL1     0.1389
     13 C         -0.404953   -3.347236   4.764937 C.ar        1 UNL1     0.0229
     14 C         -0.102951   -6.417999   6.941479 C.2        1 UNL1     0.1740
     15 C         0.925221   -5.844012   7.871506 C.3        1 UNL1     0.0520
     16 C         0.588033   -4.379945   8.118021 C.3        1 UNL1     0.1322
     17 O         0.597647   -3.635978   6.879679 O.3        1 UNL1     -0.4828
     18 C         -0.663925   -4.171577   8.973537 C.ar        1 UNL1     -0.0067
     19 C         -1.651902   -3.261346   8.545057 C.ar        1 UNL1     -0.0516
     20 C         -2.786285   -3.011938   9.326678 C.ar        1 UNL1     -0.0198
     21 C         -2.940413   -3.659417   10.539462 C.ar        1 UNL1     0.1169
     22 C         -2.001195   -4.586265   10.972661 C.ar        1 UNL1     -0.0198
     23 C         -0.875831   -4.849623   10.182563 C.ar        1 UNL1     -0.0516
     24 O         -4.039305   -3.362881   11.291063 O.3        1 UNL1     -0.5068
     25 O         -0.491527   -7.575957   7.07043 O.2        1 UNL1     -0.2917
     26 O         -1.797358   -7.25305   4.733966 O.3        1 UNL1     -0.5058
     27 O         1.138436   -1.375001   1.833922 O.3        1 UNL1     -0.3648
     28 O         0.010996   -1.293359   -1.593088 O.3        1 UNL1     -0.3841
     29 O         -2.248339   -0.362113   1.029703 O.3        1 UNL1     -0.3863
     30 O         -2.054213   -3.454238   -0.94544 O.3        1 UNL1     -0.3829
     31 H         1.557789   -2.161379   0.049618 H        1 UNL1     0.0937
     32 H         0.0   0.0   0.0 H        1 UNL1     0.0671
     33 H         -2.27766   -0.956396   -0.901542 H        1 UNL1     0.0649
     34 H         -3.166439   -2.776752   0.64072 H        1 UNL1     0.0683
     35 H         -1.480027   -4.435745   1.287252 H        1 UNL1     0.1085
     36 H         -2.196387   -5.542683   2.883904 H        1 UNL1     0.0691
     37 H         -0.059202   -2.316196   4.795033 H        1 UNL1     0.0691
     38 H         1.903009   -5.948331   7.389246 H        1 UNL1     0.0385
     39 H         0.936833   -6.427933   8.798156 H        1 UNL1     0.0385
     40 H         1.413741   -3.951508   8.702117 H        1 UNL1     0.0789
     41 H         -1.549744   -2.733553   7.601315 H        1 UNL1     0.0623
     42 H         -3.535226   -2.298917   8.990968 H        1 UNL1     0.0654
     43 H         -2.119496   -5.110148   11.91365 H        1 UNL1     0.0654
     44 H         -0.167575   -5.587523   10.546875 H        1 UNL1     0.0623
     45 H         -4.012864   -2.418151   11.513556 H        1 UNL1     0.2921
     46 H         -1.058796   -7.878055   4.806809 H        1 UNL1     0.2922
     47 H         1.601617   -0.551558   1.62592 H        1 UNL1     0.2126
     48 H         0.944983   -1.053055   -1.746886 H        1 UNL1     0.2101
     49 H         -2.238808   0.549886   0.6981 H        1 UNL1     0.2100
     50 H         -2.751739   -3.115466   -1.544108 H        1 UNL1     0.2102
@<TRIPOS>BOND
     1     1     2    1
     2     1     6    1
     3     2     3    1
     4     3     4    1
     5     3    29    1
     6     3    33    1
     7     4     5    1
     8     5     6    1
     9     5     7    1
    10     5    35    1
    11     7     8    1
    12     8     9   ar
    13     8    13   ar
    14     9    10   ar
    15     9    36    1
    16    10    11   ar
    17    10    26    1
    18    11    12   ar
    19    11    14    1
    20    12    13   ar
    21    12    17    1
    22    13    37    1
    23    14    15    1
    24    14    25    2
    25    15    16    1
    26    15    38    1
    27    15    39    1
    28    16    17    1
    29    16    18    1
    30    16    40    1
    31    18    19   ar
    32    18    23   ar
    33    19    20   ar
    34    19    41    1
    35    20    21   ar
    36    20    42    1
    37    21    22   ar
    38    21    24    1
    39    22    23   ar
    40    22    43    1
    41    23    44    1
    42    24    45    1
    43    26    46    1
    44    27    47    1
    45    28    48    1
    46    29    49    1
    47    30    50    1
    48     1    31    1
    49     1    27    1
    50     2    32    1
    51     2    28    1
    52     4    34    1
    53     4    30    1
