@<TRIPOS>MOLECULE
*****
 50 53 0 0 0
SMALL
GASTEIGER

@<TRIPOS>ATOM
     1 C         1.608286   -1.30832   0.687402 C.3        1 UNL1     0.1889
     2 C         0.383322   -1.004834   -0.216644 C.3        1 UNL1     0.1342
     3 C         -0.767113   -2.016271   -0.098492 C.3        1 UNL1     0.1174
     4 C         -0.277613   -3.446327   0.143267 C.3        1 UNL1     0.1456
     5 C         0.802642   -3.523331   1.237563 C.3        1 UNL1     0.2326
     6 O         1.901756   -2.68197   0.895618 O.3        1 UNL1     -0.3076
     7 O         0.295002   -3.280714   2.562236 O.3        1 UNL1     -0.4605
     8 C         1.244515   -3.118785   3.555076 C.ar        1 UNL1     0.1310
     9 C         1.315853   -3.863419   4.737333 C.ar        1 UNL1     0.0226
     10 C         2.328629   -3.635047   5.6765 C.ar        1 UNL1     0.1343
     11 C         3.309541   -2.671718   5.444878 C.ar        1 UNL1     0.1007
     12 C         3.225108   -1.893748   4.287114 C.ar        1 UNL1     0.1389
     13 C         2.205142   -2.121768   3.34419 C.ar        1 UNL1     0.0229
     14 C         4.449737   -2.446414   6.363217 C.2        1 UNL1     0.1740
     15 C         5.524974   -1.533422   5.851496 C.3        1 UNL1     0.0520
     16 C         4.863952   -0.371567   5.12273 C.3        1 UNL1     0.1322
     17 O         4.073514   -0.846794   4.010778 O.3        1 UNL1     -0.4828
     18 C         4.132962   0.6019   6.05049 C.ar        1 UNL1     -0.0067
     19 C         4.280827   1.99017   5.852863 C.ar        1 UNL1     -0.0516
     20 C         3.664442   2.907707   6.712024 C.ar        1 UNL1     -0.0198
     21 C         2.90535   2.45064   7.774425 C.ar        1 UNL1     0.1169
     22 C         2.713758   1.089825   7.975208 C.ar        1 UNL1     -0.0198
     23 C         3.314909   0.172267   7.105288 C.ar        1 UNL1     -0.0516
     24 O         2.351437   3.373405   8.612331 O.3        1 UNL1     -0.5068
     25 O         4.571518   -3.018857   7.443015 O.2        1 UNL1     -0.2917
     26 O         2.341254   -4.39485   6.809693 O.3        1 UNL1     -0.5058
     27 O         1.604676   -0.582871   1.906623 O.3        1 UNL1     -0.3648
     28 O         0.81748   -1.008295   -1.589306 O.3        1 UNL1     -0.3841
     29 O         -1.722288   -1.586478   0.873645 O.3        1 UNL1     -0.3863
     30 O         0.267829   -3.974399   -1.085278 O.3        1 UNL1     -0.3829
     31 H         2.490131   -0.935972   0.154688 H        1 UNL1     0.0937
     32 H         -0.0   0.0   0.0 H        1 UNL1     0.0671
     33 H         -1.307467   -2.02283   -1.055411 H        1 UNL1     0.0649
     34 H         -1.12078   -4.08819   0.421624 H        1 UNL1     0.0683
     35 H         1.163303   -4.558024   1.180879 H        1 UNL1     0.1085
     36 H         0.616213   -4.664326   4.949874 H        1 UNL1     0.0691
     37 H         2.160804   -1.501718   2.451405 H        1 UNL1     0.0691
     38 H         6.158806   -2.115368   5.17391 H        1 UNL1     0.0385
     39 H         6.141202   -1.197829   6.692579 H        1 UNL1     0.0385
     40 H         5.666119   0.217219   4.657564 H        1 UNL1     0.0789
     41 H         4.878995   2.374187   5.031658 H        1 UNL1     0.0623
     42 H         3.79578   3.975638   6.556184 H        1 UNL1     0.0654
     43 H         2.108964   0.721233   8.795131 H        1 UNL1     0.0654
     44 H         3.135256   -0.883208   7.285679 H        1 UNL1     0.0623
     45 H         1.969994   4.086124   8.074513 H        1 UNL1     0.2921
     46 H         2.101454   -3.84375   7.571399 H        1 UNL1     0.2922
     47 H         1.135862   -1.080591   2.590983 H        1 UNL1     0.2126
     48 H         0.139326   -1.495312   -2.095918 H        1 UNL1     0.2101
     49 H         -2.281905   -2.333544   1.139193 H        1 UNL1     0.2100
     50 H         0.206228   -3.274455   -1.767917 H        1 UNL1     0.2102
@<TRIPOS>BOND
     1     1     2    1
     2     1     6    1
     3     2     3    1
     4     3     4    1
     5     3    29    1
     6     3    33    1
     7     4     5    1
     8     5     6    1
     9     5     7    1
    10     5    35    1
    11     7     8    1
    12     8     9   ar
    13     8    13   ar
    14     9    10   ar
    15     9    36    1
    16    10    11   ar
    17    10    26    1
    18    11    12   ar
    19    11    14    1
    20    12    13   ar
    21    12    17    1
    22    13    37    1
    23    14    15    1
    24    14    25    2
    25    15    16    1
    26    15    38    1
    27    15    39    1
    28    16    17    1
    29    16    18    1
    30    16    40    1
    31    18    19   ar
    32    18    23   ar
    33    19    20   ar
    34    19    41    1
    35    20    21   ar
    36    20    42    1
    37    21    22   ar
    38    21    24    1
    39    22    23   ar
    40    22    43    1
    41    23    44    1
    42    24    45    1
    43    26    46    1
    44    27    47    1
    45    28    48    1
    46    29    49    1
    47    30    50    1
    48     1    31    1
    49     1    27    1
    50     2    32    1
    51     2    28    1
    52     4    34    1
    53     4    30    1
