@<TRIPOS>MOLECULE
*****
 50 53 0 0 0
SMALL
GASTEIGER

@<TRIPOS>ATOM
     1 C         -0.391319   -1.405898   1.625154 C.3        1 UNL1     0.1889
     2 C         -0.498193   -0.967376   0.13982 C.3        1 UNL1     0.1342
     3 C         -1.933747   -0.874324   -0.399615 C.3        1 UNL1     0.1174
     4 C         -2.861871   -1.935374   0.196938 C.3        1 UNL1     0.1456
     5 C         -2.722429   -2.049153   1.725981 C.3        1 UNL1     0.2326
     6 O         -1.36872   -2.334642   2.070707 O.3        1 UNL1     -0.3076
     7 O         -3.261028   -0.91928   2.436347 O.3        1 UNL1     -0.4605
     8 C         -3.797773   -1.186693   3.682912 C.ar        1 UNL1     0.1310
     9 C         -4.656027   -2.249562   3.98459 C.ar        1 UNL1     0.0226
     10 C         -5.134281   -2.446786   5.285466 C.ar        1 UNL1     0.1343
     11 C         -4.746486   -1.598984   6.322137 C.ar        1 UNL1     0.1007
     12 C         -3.922606   -0.510047   6.025114 C.ar        1 UNL1     0.1389
     13 C         -3.443978   -0.310416   4.716491 C.ar        1 UNL1     0.0229
     14 C         -5.154364   -1.810087   7.730408 C.2        1 UNL1     0.1740
     15 C         -4.468615   -0.939922   8.742391 C.3        1 UNL1     0.0520
     16 C         -4.342232   0.46305   8.164762 C.3        1 UNL1     0.1322
     17 O         -3.566712   0.447865   6.945989 O.3        1 UNL1     -0.4828
     18 C         -5.674939   1.208378   8.059394 C.ar        1 UNL1     -0.0067
     19 C         -5.752814   2.381213   7.280543 C.ar        1 UNL1     -0.0516
     20 C         -6.943697   3.112951   7.201058 C.ar        1 UNL1     -0.0198
     21 C         -8.05909   2.687315   7.900029 C.ar        1 UNL1     0.1169
     22 C         -8.023044   1.518089   8.648661 C.ar        1 UNL1     -0.0198
     23 C         -6.837565   0.776138   8.713507 C.ar        1 UNL1     -0.0516
     24 O         -9.190195   3.446225   7.828914 O.3        1 UNL1     -0.5068
     25 O         -5.939198   -2.686613   8.082859 O.2        1 UNL1     -0.2917
     26 O         -5.969167   -3.501635   5.513157 O.3        1 UNL1     -0.5058
     27 O         -0.251805   -0.319419   2.526757 O.3        1 UNL1     -0.3648
     28 O         0.202686   -1.928568   -0.671096 O.3        1 UNL1     -0.3841
     29 O         -2.444743   0.452367   -0.255027 O.3        1 UNL1     -0.3863
     30 O         -2.55692   -3.217556   -0.393575 O.3        1 UNL1     -0.3829
     31 H         0.54964   -1.958566   1.721232 H        1 UNL1     0.0937
     32 H         0.0   0.0   0.0 H        1 UNL1     0.0671
     33 H         -1.897447   -1.056571   -1.482754 H        1 UNL1     0.0649
     34 H         -3.903102   -1.705861   -0.05518 H        1 UNL1     0.0683
     35 H         -3.310815   -2.939829   1.979708 H        1 UNL1     0.1085
     36 H         -4.949636   -2.975889   3.23468 H        1 UNL1     0.0691
     37 H         -2.80475   0.54555   4.511056 H        1 UNL1     0.0691
     38 H         -3.483536   -1.375652   8.940599 H        1 UNL1     0.0385
     39 H         -5.042597   -0.95348   9.675203 H        1 UNL1     0.0385
     40 H         -3.736167   1.049487   8.868535 H        1 UNL1     0.0789
     41 H         -4.888664   2.741216   6.729821 H        1 UNL1     0.0623
     42 H         -6.987727   4.022209   6.606648 H        1 UNL1     0.0654
     43 H         -8.894999   1.167547   9.18785 H        1 UNL1     0.0654
     44 H         -6.848254   -0.13797   9.299287 H        1 UNL1     0.0623
     45 H         -8.997918   4.319468   8.207323 H        1 UNL1     0.2921
     46 H         -5.606112   -4.054148   6.22332 H        1 UNL1     0.2922
     47 H         0.499977   0.233234   2.271299 H        1 UNL1     0.2126
     48 H         1.149114   -1.849227   -0.443695 H        1 UNL1     0.2101
     49 H         -1.986943   1.050821   -0.866636 H        1 UNL1     0.2100
     50 H         -2.809973   -3.181787   -1.339301 H        1 UNL1     0.2102
@<TRIPOS>BOND
     1     1     2    1
     2     1     6    1
     3     2     3    1
     4     3     4    1
     5     3    29    1
     6     3    33    1
     7     4     5    1
     8     5     6    1
     9     5     7    1
    10     5    35    1
    11     7     8    1
    12     8     9   ar
    13     8    13   ar
    14     9    10   ar
    15     9    36    1
    16    10    11   ar
    17    10    26    1
    18    11    12   ar
    19    11    14    1
    20    12    13   ar
    21    12    17    1
    22    13    37    1
    23    14    15    1
    24    14    25    2
    25    15    16    1
    26    15    38    1
    27    15    39    1
    28    16    17    1
    29    16    18    1
    30    16    40    1
    31    18    19   ar
    32    18    23   ar
    33    19    20   ar
    34    19    41    1
    35    20    21   ar
    36    20    42    1
    37    21    22   ar
    38    21    24    1
    39    22    23   ar
    40    22    43    1
    41    23    44    1
    42    24    45    1
    43    26    46    1
    44    27    47    1
    45    28    48    1
    46    29    49    1
    47    30    50    1
    48     1    31    1
    49     1    27    1
    50     2    32    1
    51     2    28    1
    52     4    34    1
    53     4    30    1
