@<TRIPOS>MOLECULE
*****
 50 53 0 0 0
SMALL
GASTEIGER

@<TRIPOS>ATOM
     1 C         -0.34542   -1.336257   1.692899 C.3        1 UNL1     0.1889
     2 C         -0.469008   -0.973684   0.188503 C.3        1 UNL1     0.1342
     3 C         -1.908059   -0.949192   -0.349081 C.3        1 UNL1     0.1174
     4 C         -2.802873   -2.006875   0.301866 C.3        1 UNL1     0.1456
     5 C         -2.656222   -2.042149   1.834059 C.3        1 UNL1     0.2326
     6 O         -1.293786   -2.270626   2.186812 O.3        1 UNL1     -0.3076
     7 O         -3.226183   -0.895459   2.490997 O.3        1 UNL1     -0.4605
     8 C         -3.741414   -1.115304   3.755802 C.ar        1 UNL1     0.1310
     9 C         -4.565589   -2.185426   4.120323 C.ar        1 UNL1     0.0226
     10 C         -5.023769   -2.330851   5.435171 C.ar        1 UNL1     0.1343
     11 C         -4.649062   -1.421882   6.423711 C.ar        1 UNL1     0.1007
     12 C         -3.859939   -0.326466   6.062971 C.ar        1 UNL1     0.1389
     13 C         -3.401539   -0.179013   4.740263 C.ar        1 UNL1     0.0229
     14 C         -5.035328   -1.573838   7.845633 C.2        1 UNL1     0.1740
     15 C         -4.363716   -0.635429   8.804734 C.3        1 UNL1     0.0520
     16 C         -4.283806   0.739982   8.156801 C.3        1 UNL1     0.1322
     17 O         -3.521531   0.685765   6.930805 O.3        1 UNL1     -0.4828
     18 C         -5.638344   1.441514   8.031086 C.ar        1 UNL1     -0.0067
     19 C         -6.002346   2.029454   6.802248 C.ar        1 UNL1     -0.0516
     20 C         -7.21286   2.719574   6.666774 C.ar        1 UNL1     -0.0198
     21 C         -8.062747   2.834833   7.752239 C.ar        1 UNL1     0.1169
     22 C         -7.747429   2.238026   8.966008 C.ar        1 UNL1     -0.0198
     23 C         -6.545491   1.532086   9.096579 C.ar        1 UNL1     -0.0516
     24 O         -9.215343   3.546595   7.593123 O.3        1 UNL1     -0.5068
     25 O         -5.79089   -2.453333   8.250724 O.2        1 UNL1     -0.2917
     26 O         -5.825625   -3.396001   5.725115 O.3        1 UNL1     -0.5058
     27 O         -0.235795   -0.203662   2.540247 O.3        1 UNL1     -0.3648
     28 O         0.257916   -1.952073   -0.577684 O.3        1 UNL1     -0.3841
     29 O         -2.457695   0.367348   -0.266897 O.3        1 UNL1     -0.3863
     30 O         -2.461646   -3.306683   -0.22705 O.3        1 UNL1     -0.3829
     31 H         0.611715   -1.855693   1.811887 H        1 UNL1     0.0937
     32 H         0.0   0.0   0.0 H        1 UNL1     0.0671
     33 H         -1.869152   -1.182653   -1.422255 H        1 UNL1     0.0649
     34 H         -3.851076   -1.820597   0.043078 H        1 UNL1     0.0683
     35 H         -3.217361   -2.93638   2.132978 H        1 UNL1     0.1085
     36 H         -4.846492   -2.956181   3.410992 H        1 UNL1     0.0691
     37 H         -2.789322   0.683209   4.48481 H        1 UNL1     0.0691
     38 H         -3.364479   -1.032975   9.012119 H        1 UNL1     0.0385
     39 H         -4.92685   -0.618523   9.744081 H        1 UNL1     0.0385
     40 H         -3.687098   1.377527   8.823132 H        1 UNL1     0.0789
     41 H         -5.348352   1.960859   5.937819 H        1 UNL1     0.0623
     42 H         -7.476788   3.178775   5.717306 H        1 UNL1     0.0654
     43 H         -8.412692   2.309285   9.818215 H        1 UNL1     0.0654
     44 H         -6.336117   1.069478   10.056267 H        1 UNL1     0.0623
     45 H         -8.982146   4.459837   7.360042 H        1 UNL1     0.2921
     46 H         -5.427974   -3.914527   6.442343 H        1 UNL1     0.2922
     47 H         0.508899   0.349285   2.265399 H        1 UNL1     0.2126
     48 H         1.193635   -1.879936   -0.307575 H        1 UNL1     0.2101
     49 H         -2.019117   0.948701   -0.908358 H        1 UNL1     0.2100
     50 H         -2.697241   -3.316612   -1.177897 H        1 UNL1     0.2102
@<TRIPOS>BOND
     1     1     2    1
     2     1     6    1
     3     2     3    1
     4     3     4    1
     5     3    29    1
     6     3    33    1
     7     4     5    1
     8     5     6    1
     9     5     7    1
    10     5    35    1
    11     7     8    1
    12     8     9   ar
    13     8    13   ar
    14     9    10   ar
    15     9    36    1
    16    10    11   ar
    17    10    26    1
    18    11    12   ar
    19    11    14    1
    20    12    13   ar
    21    12    17    1
    22    13    37    1
    23    14    15    1
    24    14    25    2
    25    15    16    1
    26    15    38    1
    27    15    39    1
    28    16    17    1
    29    16    18    1
    30    16    40    1
    31    18    19   ar
    32    18    23   ar
    33    19    20   ar
    34    19    41    1
    35    20    21   ar
    36    20    42    1
    37    21    22   ar
    38    21    24    1
    39    22    23   ar
    40    22    43    1
    41    23    44    1
    42    24    45    1
    43    26    46    1
    44    27    47    1
    45    28    48    1
    46    29    49    1
    47    30    50    1
    48     1    31    1
    49     1    27    1
    50     2    32    1
    51     2    28    1
    52     4    34    1
    53     4    30    1
