@<TRIPOS>MOLECULE
*****
 50 53 0 0 0
SMALL
GASTEIGER

@<TRIPOS>ATOM
     1 C         -0.205486   -1.318634   1.729099 C.3        1 UNL1     0.1889
     2 C         -0.399473   -0.99717   0.222789 C.3        1 UNL1     0.1342
     3 C         -1.853386   -1.075582   -0.267572 C.3        1 UNL1     0.1174
     4 C         -2.657599   -2.173586   0.432962 C.3        1 UNL1     0.1456
     5 C         -2.460702   -2.166424   1.959901 C.3        1 UNL1     0.2326
     6 O         -1.075972   -2.300385   2.272066 O.3        1 UNL1     -0.3076
     7 O         -3.081943   -1.044277   2.612715 O.3        1 UNL1     -0.4605
     8 C         -3.552002   -1.272167   3.893589 C.ar        1 UNL1     0.1310
     9 C         -4.292689   -2.387875   4.29841 C.ar        1 UNL1     0.0226
     10 C         -4.709783   -2.536623   5.626495 C.ar        1 UNL1     0.1343
     11 C         -4.375557   -1.583965   6.588044 C.ar        1 UNL1     0.1007
     12 C         -3.671471   -0.445325   6.187364 C.ar        1 UNL1     0.1389
     13 C         -3.254475   -0.294702   4.851378 C.ar        1 UNL1     0.0229
     14 C         -4.718037   -1.732124   8.02154 C.2        1 UNL1     0.1740
     15 C         -4.090357   -0.730588   8.945927 C.3        1 UNL1     0.0520
     16 C         -4.119303   0.633291   8.269942 C.3        1 UNL1     0.1322
     17 O         -3.38325   0.605362   7.027157 O.3        1 UNL1     -0.4828
     18 C         -5.521079   1.238621   8.163529 C.ar        1 UNL1     -0.0067
     19 C         -5.736795   2.340167   7.310138 C.ar        1 UNL1     -0.0516
     20 C         -6.995381   2.947383   7.225205 C.ar        1 UNL1     -0.0198
     21 C         -8.042144   2.468148   7.992308 C.ar        1 UNL1     0.1169
     22 C         -7.869304   1.364039   8.816874 C.ar        1 UNL1     -0.0198
     23 C         -6.61554   0.745124   8.888106 C.ar        1 UNL1     -0.0516
     24 O         -9.243669   3.108644   7.911659 O.3        1 UNL1     -0.5068
     25 O         -5.402376   -2.65219   8.461592 O.2        1 UNL1     -0.2917
     26 O         -5.430248   -3.64741   5.95614 O.3        1 UNL1     -0.5058
     27 O         -0.141964   -0.16335   2.550117 O.3        1 UNL1     -0.3648
     28 O         0.364099   -1.943798   -0.547638 O.3        1 UNL1     -0.3841
     29 O         -2.48338   0.204922   -0.193075 O.3        1 UNL1     -0.3863
     30 O         -2.250656   -3.46025   -0.081415 O.3        1 UNL1     -0.3829
     31 H         0.786242   -1.773645   1.826672 H        1 UNL1     0.0937
     32 H         0.0   0.0   0.0 H        1 UNL1     0.0671
     33 H         -1.833493   -1.329206   -1.336683 H        1 UNL1     0.0649
     34 H         -3.723229   -2.059777   0.205186 H        1 UNL1     0.0683
     35 H         -2.953676   -3.08778   2.294504 H        1 UNL1     0.1085
     36 H         -4.536424   -3.190496   3.611014 H        1 UNL1     0.0691
     37 H         -2.70852   0.601532   4.564688 H        1 UNL1     0.0691
     38 H         -3.061848   -1.055083   9.136713 H        1 UNL1     0.0385
     39 H         -4.631772   -0.732345   9.898106 H        1 UNL1     0.0385
     40 H         -3.55247   1.323548   8.909289 H        1 UNL1     0.0789
     41 H         -4.929051   2.740825   6.704602 H        1 UNL1     0.0623
     42 H         -7.146075   3.803604   6.572374 H        1 UNL1     0.0654
     43 H         -8.686088   0.971208   9.410557 H        1 UNL1     0.0654
     44 H         -6.519064   -0.121749   9.534689 H        1 UNL1     0.0623
     45 H         -9.136614   4.006971   8.26417 H        1 UNL1     0.2921
     46 H         -4.993584   -4.110731   6.688309 H        1 UNL1     0.2922
     47 H         0.545646   0.437289   2.230297 H        1 UNL1     0.2126
     48 H         1.305295   -1.761362   -0.36163 H        1 UNL1     0.2101
     49 H         -2.236382   0.739604   -0.964373 H        1 UNL1     0.2100
     50 H         -2.535123   -3.514503   -1.017282 H        1 UNL1     0.2102
@<TRIPOS>BOND
     1     1     2    1
     2     1     6    1
     3     2     3    1
     4     3     4    1
     5     3    29    1
     6     3    33    1
     7     4     5    1
     8     5     6    1
     9     5     7    1
    10     5    35    1
    11     7     8    1
    12     8     9   ar
    13     8    13   ar
    14     9    10   ar
    15     9    36    1
    16    10    11   ar
    17    10    26    1
    18    11    12   ar
    19    11    14    1
    20    12    13   ar
    21    12    17    1
    22    13    37    1
    23    14    15    1
    24    14    25    2
    25    15    16    1
    26    15    38    1
    27    15    39    1
    28    16    17    1
    29    16    18    1
    30    16    40    1
    31    18    19   ar
    32    18    23   ar
    33    19    20   ar
    34    19    41    1
    35    20    21   ar
    36    20    42    1
    37    21    22   ar
    38    21    24    1
    39    22    23   ar
    40    22    43    1
    41    23    44    1
    42    24    45    1
    43    26    46    1
    44    27    47    1
    45    28    48    1
    46    29    49    1
    47    30    50    1
    48     1    31    1
    49     1    27    1
    50     2    32    1
    51     2    28    1
    52     4    34    1
    53     4    30    1
