@<TRIPOS>MOLECULE
*****
 50 53 0 0 0
SMALL
GASTEIGER

@<TRIPOS>ATOM
     1 C         1.002295   0.890103   1.724507 C.3        1 UNL1     0.1889
     2 C         1.025917   0.188221   0.340042 C.3        1 UNL1     0.1342
     3 C         1.815951   -1.128929   0.302249 C.3        1 UNL1     0.1174
     4 C         3.041494   -1.112434   1.219249 C.3        1 UNL1     0.1456
     5 C         2.723445   -0.557149   2.619559 C.3        1 UNL1     0.2326
     6 O         2.177892   0.755532   2.509528 O.3        1 UNL1     -0.3076
     7 O         1.914418   -1.441187   3.4166 O.3        1 UNL1     -0.4605
     8 C         2.439668   -1.801755   4.644456 C.ar        1 UNL1     0.1310
     9 C         3.414681   -2.783365   4.852042 C.ar        1 UNL1     0.0226
     10 C         3.896371   -3.064882   6.13603 C.ar        1 UNL1     0.1343
     11 C         3.431481   -2.354346   7.241859 C.ar        1 UNL1     0.1007
     12 C         2.428204   -1.400244   7.05236 C.ar        1 UNL1     0.1389
     13 C         1.942129   -1.11921   5.761553 C.ar        1 UNL1     0.0229
     14 C         3.965901   -2.552384   8.609093 C.2        1 UNL1     0.1740
     15 C         3.514259   -1.553544   9.633734 C.3        1 UNL1     0.0520
     16 C         2.037833   -1.26153   9.403842 C.3        1 UNL1     0.1322
     17 O         1.822104   -0.719081   8.082373 O.3        1 UNL1     -0.4828
     18 C         1.115042   -2.426557   9.769756 C.ar        1 UNL1     -0.0067
     19 C         1.453327   -3.732849   9.360638 C.ar        1 UNL1     -0.0516
     20 C         0.607946   -4.813869   9.637563 C.ar        1 UNL1     -0.0198
     21 C         -0.579383   -4.60108   10.314909 C.ar        1 UNL1     0.1169
     22 C         -0.923921   -3.331426   10.760004 C.ar        1 UNL1     -0.0198
     23 C         -0.069862   -2.253138   10.49936 C.ar        1 UNL1     -0.0516
     24 O         -1.395315   -5.67202   10.533413 O.3        1 UNL1     -0.5068
     25 O         4.788011   -3.419006   8.894724 O.2        1 UNL1     -0.2917
     26 O         4.846495   -4.034796   6.270622 O.3        1 UNL1     -0.5058
     27 O         -0.166275   0.612076   2.479445 O.3        1 UNL1     -0.3648
     28 O         1.633715   1.079808   -0.613037 O.3        1 UNL1     -0.3841
     29 O         0.955815   -2.243337   0.547999 O.3        1 UNL1     -0.3863
     30 O         4.071107   -0.29655   0.619316 O.3        1 UNL1     -0.3829
     31 H         0.947025   1.966512   1.528627 H        1 UNL1     0.0937
     32 H         0.0   -0.0   0.0 H        1 UNL1     0.0671
     33 H         2.187694   -1.267708   -0.722577 H        1 UNL1     0.0649
     34 H         3.450041   -2.124453   1.315722 H        1 UNL1     0.0683
     35 H         3.707776   -0.454779   3.093365 H        1 UNL1     0.1085
     36 H         3.856632   -3.33151   4.027216 H        1 UNL1     0.0691
     37 H         1.160105   -0.372634   5.640906 H        1 UNL1     0.0691
     38 H         4.120186   -0.650283   9.505288 H        1 UNL1     0.0385
     39 H         3.706029   -1.95457   10.634824 H        1 UNL1     0.0385
     40 H         1.759461   -0.445516   10.084393 H        1 UNL1     0.0789
     41 H         2.375304   -3.924679   8.819518 H        1 UNL1     0.0623
     42 H         0.87419   -5.814596   9.306396 H        1 UNL1     0.0654
     43 H         -1.8441   -3.156004   11.304439 H        1 UNL1     0.0654
     44 H         -0.365421   -1.276743   10.871035 H        1 UNL1     0.0623
     45 H         -0.858101   -6.479859   10.494511 H        1 UNL1     0.2921
     46 H         4.619004   -4.790977   5.706839 H        1 UNL1     0.2922
     47 H         0.024391   0.672288   3.425955 H        1 UNL1     0.2126
     48 H         0.939996   1.313227   -1.259567 H        1 UNL1     0.2101
     49 H         0.081361   -2.076823   0.16148 H        1 UNL1     0.2100
     50 H         3.859836   -0.195722   -0.331952 H        1 UNL1     0.2102
@<TRIPOS>BOND
     1     1     2    1
     2     1     6    1
     3     2     3    1
     4     3     4    1
     5     3    29    1
     6     3    33    1
     7     4     5    1
     8     5     6    1
     9     5     7    1
    10     5    35    1
    11     7     8    1
    12     8     9   ar
    13     8    13   ar
    14     9    10   ar
    15     9    36    1
    16    10    11   ar
    17    10    26    1
    18    11    12   ar
    19    11    14    1
    20    12    13   ar
    21    12    17    1
    22    13    37    1
    23    14    15    1
    24    14    25    2
    25    15    16    1
    26    15    38    1
    27    15    39    1
    28    16    17    1
    29    16    18    1
    30    16    40    1
    31    18    19   ar
    32    18    23   ar
    33    19    20   ar
    34    19    41    1
    35    20    21   ar
    36    20    42    1
    37    21    22   ar
    38    21    24    1
    39    22    23   ar
    40    22    43    1
    41    23    44    1
    42    24    45    1
    43    26    46    1
    44    27    47    1
    45    28    48    1
    46    29    49    1
    47    30    50    1
    48     1    31    1
    49     1    27    1
    50     2    32    1
    51     2    28    1
    52     4    34    1
    53     4    30    1
