@<TRIPOS>MOLECULE
*****
 50 53 0 0 0
SMALL
GASTEIGER

@<TRIPOS>ATOM
     1 C         -0.311807   -1.343315   1.693837 C.3        1 UNL1     0.1889
     2 C         -0.473794   -0.969931   0.195744 C.3        1 UNL1     0.1342
     3 C         -1.927048   -0.927062   -0.300924 C.3        1 UNL1     0.1174
     4 C         -2.814344   -1.979494   0.368561 C.3        1 UNL1     0.1456
     5 C         -2.625063   -2.026019   1.895771 C.3        1 UNL1     0.2326
     6 O         -1.255742   -2.270889   2.208608 O.3        1 UNL1     -0.3076
     7 O         -3.164175   -0.877659   2.575438 O.3        1 UNL1     -0.4605
     8 C         -3.656282   -1.102441   3.848556 C.ar        1 UNL1     0.1310
     9 C         -4.488536   -2.163923   4.21992 C.ar        1 UNL1     0.0226
     10 C         -4.921466   -2.315629   5.542591 C.ar        1 UNL1     0.1343
     11 C         -4.512877   -1.422084   6.531768 C.ar        1 UNL1     0.1007
     12 C         -3.715208   -0.334836   6.16516 C.ar        1 UNL1     0.1389
     13 C         -3.28219   -0.181028   4.834646 C.ar        1 UNL1     0.0229
     14 C         -4.871794   -1.582434   7.959921 C.2        1 UNL1     0.1740
     15 C         -4.166568   -0.663515   8.913752 C.3        1 UNL1     0.0520
     16 C         -4.079675   0.716925   8.277519 C.3        1 UNL1     0.1322
     17 O         -3.343873   0.663682   7.035412 O.3        1 UNL1     -0.4828
     18 C         -5.425952   1.439449   8.186848 C.ar        1 UNL1     -0.0067
     19 C         -5.806575   2.044802   6.971575 C.ar        1 UNL1     -0.0516
     20 C         -7.009247   2.753902   6.868031 C.ar        1 UNL1     -0.0198
     21 C         -7.834639   2.870853   7.972059 C.ar        1 UNL1     0.1169
     22 C         -7.503129   2.257497   9.173198 C.ar        1 UNL1     -0.0198
     23 C         -6.309366   1.532755   9.271868 C.ar        1 UNL1     -0.0516
     24 O         -8.97958   3.600976   7.843878 O.3        1 UNL1     -0.5068
     25 O         -5.631783   -2.454727   8.372241 O.2        1 UNL1     -0.2917
     26 O         -5.732881   -3.371728   5.838978 O.3        1 UNL1     -0.5058
     27 O         -0.166436   -0.217325   2.544602 O.3        1 UNL1     -0.3648
     28 O         0.220919   -1.950942   -0.59653 O.3        1 UNL1     -0.3841
     29 O         -2.460205   0.394575   -0.195317 O.3        1 UNL1     -0.3863
     30 O         -2.501884   -3.279396   -0.17762 O.3        1 UNL1     -0.3829
     31 H         0.642748   -1.873423   1.782663 H        1 UNL1     0.0937
     32 H         0.0   0.0   0.0 H        1 UNL1     0.0671
     33 H         -1.920794   -1.154095   -1.376162 H        1 UNL1     0.0649
     34 H         -3.867379   -1.780685   0.14054 H        1 UNL1     0.0683
     35 H         -3.187002   -2.916247   2.204962 H        1 UNL1     0.1085
     36 H         -4.79551   -2.923415   3.509244 H        1 UNL1     0.0691
     37 H         -2.662654   0.674614   4.574752 H        1 UNL1     0.0691
     38 H         -3.169265   -1.077702   9.096406 H        1 UNL1     0.0385
     39 H         -4.709791   -0.647659   9.86477 H        1 UNL1     0.0385
     40 H         -3.45987   1.339024   8.937334 H        1 UNL1     0.0789
     41 H         -5.171736   1.975191   6.093063 H        1 UNL1     0.0623
     42 H         -7.28595   3.226302   5.928731 H        1 UNL1     0.0654
     43 H         -8.149447   2.330059   10.039753 H        1 UNL1     0.0654
     44 H         -6.087038   1.057647   10.222493 H        1 UNL1     0.0623
     45 H         -8.736962   4.518017   7.636777 H        1 UNL1     0.2921
     46 H         -5.328196   -3.903105   6.54274 H        1 UNL1     0.2922
     47 H         0.565615   0.33828   2.242503 H        1 UNL1     0.2126
     48 H         1.16759   -1.874699   -0.369079 H        1 UNL1     0.2101
     49 H         -2.033708   0.975397   -0.845348 H        1 UNL1     0.2100
     50 H         -2.764205   -3.280836   -1.121494 H        1 UNL1     0.2102
@<TRIPOS>BOND
     1     1     2    1
     2     1     6    1
     3     2     3    1
     4     3     4    1
     5     3    29    1
     6     3    33    1
     7     4     5    1
     8     5     6    1
     9     5     7    1
    10     5    35    1
    11     7     8    1
    12     8     9   ar
    13     8    13   ar
    14     9    10   ar
    15     9    36    1
    16    10    11   ar
    17    10    26    1
    18    11    12   ar
    19    11    14    1
    20    12    13   ar
    21    12    17    1
    22    13    37    1
    23    14    15    1
    24    14    25    2
    25    15    16    1
    26    15    38    1
    27    15    39    1
    28    16    17    1
    29    16    18    1
    30    16    40    1
    31    18    19   ar
    32    18    23   ar
    33    19    20   ar
    34    19    41    1
    35    20    21   ar
    36    20    42    1
    37    21    22   ar
    38    21    24    1
    39    22    23   ar
    40    22    43    1
    41    23    44    1
    42    24    45    1
    43    26    46    1
    44    27    47    1
    45    28    48    1
    46    29    49    1
    47    30    50    1
    48     1    31    1
    49     1    27    1
    50     2    32    1
    51     2    28    1
    52     4    34    1
    53     4    30    1
