@<TRIPOS>MOLECULE
*****
 50 53 0 0 0
SMALL
GASTEIGER

@<TRIPOS>ATOM
     1 C         0.531676   0.613236   -2.027823 C.3        1 UNL1     0.1889
     2 C         -0.226901   0.822476   -0.689646 C.3        1 UNL1     0.1342
     3 C         -1.751306   0.952462   -0.830215 C.3        1 UNL1     0.1174
     4 C         -2.169686   1.670942   -2.115463 C.3        1 UNL1     0.1456
     5 C         -1.420686   1.147783   -3.354684 C.3        1 UNL1     0.2326
     6 O         -0.013669   1.272817   -3.160937 O.3        1 UNL1     -0.3076
     7 O         -1.821933   -0.17654   -3.750275 O.3        1 UNL1     -0.4605
     8 C         -0.802218   -1.031303   -4.128547 C.ar        1 UNL1     0.1310
     9 C         -0.362873   -1.237928   -5.440638 C.ar        1 UNL1     0.0226
     10 C         0.692165   -2.114383   -5.721037 C.ar        1 UNL1     0.1343
     11 C         1.349781   -2.788065   -4.692672 C.ar        1 UNL1     0.1007
     12 C         0.8933   -2.621257   -3.382487 C.ar        1 UNL1     0.1389
     13 C         -0.169277   -1.741954   -3.101085 C.ar        1 UNL1     0.0229
     14 C         2.524065   -3.66092   -4.92361 C.2        1 UNL1     0.1740
     15 C         3.241109   -4.124553   -3.689737 C.3        1 UNL1     0.0520
     16 C         2.203389   -4.470495   -2.630767 C.3        1 UNL1     0.1322
     17 O         1.396309   -3.316721   -2.307508 O.3        1 UNL1     -0.4828
     18 C         1.402974   -5.737198   -2.943056 C.ar        1 UNL1     -0.0067
     19 C         1.600792   -6.892317   -2.158976 C.ar        1 UNL1     -0.0516
     20 C         0.920136   -8.081291   -2.447094 C.ar        1 UNL1     -0.0198
     21 C         0.04652   -8.130007   -3.518658 C.ar        1 UNL1     0.1169
     22 C         -0.194503   -6.999672   -4.288781 C.ar        1 UNL1     -0.0198
     23 C         0.472102   -5.805447   -3.98958 C.ar        1 UNL1     -0.0516
     24 O         -0.569717   -9.315756   -3.791883 O.3        1 UNL1     -0.5068
     25 O         2.95222   -3.936584   -6.041277 O.2        1 UNL1     -0.2917
     26 O         1.071668   -2.272213   -7.022056 O.3        1 UNL1     -0.5058
     27 O         0.825323   -0.746906   -2.30454 O.3        1 UNL1     -0.3648
     28 O         0.251896   2.03499   -0.078688 O.3        1 UNL1     -0.3841
     29 O         -2.385016   -0.319004   -0.675559 O.3        1 UNL1     -0.3863
     30 O         -1.905604   3.083895   -1.975771 O.3        1 UNL1     -0.3829
     31 H         1.51436   1.082072   -1.906977 H        1 UNL1     0.0937
     32 H         0.0   0.0   0.0 H        1 UNL1     0.0671
     33 H         -2.114488   1.563357   0.008013 H        1 UNL1     0.0649
     34 H         -3.248493   1.560371   -2.271509 H        1 UNL1     0.0683
     35 H         -1.697297   1.853155   -4.148293 H        1 UNL1     0.1085
     36 H         -0.795838   -0.701809   -6.278038 H        1 UNL1     0.0691
     37 H         -0.506531   -1.630557   -2.072812 H        1 UNL1     0.0691
     38 H         3.888561   -3.306687   -3.355927 H        1 UNL1     0.0385
     39 H         3.875132   -4.980945   -3.943481 H        1 UNL1     0.0385
     40 H         2.748743   -4.692572   -1.703517 H        1 UNL1     0.0789
     41 H         2.288097   -6.882397   -1.318047 H        1 UNL1     0.0623
     42 H         1.090194   -8.968622   -1.842333 H        1 UNL1     0.0654
     43 H         -0.887928   -7.022618   -5.120974 H        1 UNL1     0.0654
     44 H         0.251758   -4.938988   -4.605651 H        1 UNL1     0.0623
     45 H         0.106888   -9.958347   -4.060212 H        1 UNL1     0.2921
     46 H         0.804133   -3.151613   -7.33269 H        1 UNL1     0.2922
     47 H         0.10829   -1.314968   -1.989849 H        1 UNL1     0.2126
     48 H         0.016825   2.764725   -0.683634 H        1 UNL1     0.2101
     49 H         -2.479842   -0.747909   -1.540916 H        1 UNL1     0.2100
     50 H         -1.218282   3.195479   -1.286678 H        1 UNL1     0.2102
@<TRIPOS>BOND
     1     1     2    1
     2     1     6    1
     3     2     3    1
     4     3     4    1
     5     3    29    1
     6     3    33    1
     7     4     5    1
     8     5     6    1
     9     5     7    1
    10     5    35    1
    11     7     8    1
    12     8     9   ar
    13     8    13   ar
    14     9    10   ar
    15     9    36    1
    16    10    11   ar
    17    10    26    1
    18    11    12   ar
    19    11    14    1
    20    12    13   ar
    21    12    17    1
    22    13    37    1
    23    14    15    1
    24    14    25    2
    25    15    16    1
    26    15    38    1
    27    15    39    1
    28    16    17    1
    29    16    18    1
    30    16    40    1
    31    18    19   ar
    32    18    23   ar
    33    19    20   ar
    34    19    41    1
    35    20    21   ar
    36    20    42    1
    37    21    22   ar
    38    21    24    1
    39    22    23   ar
    40    22    43    1
    41    23    44    1
    42    24    45    1
    43    26    46    1
    44    27    47    1
    45    28    48    1
    46    29    49    1
    47    30    50    1
    48     1    31    1
    49     1    27    1
    50     2    32    1
    51     2    28    1
    52     4    34    1
    53     4    30    1
