@<TRIPOS>MOLECULE
*****
 50 53 0 0 0
SMALL
GASTEIGER

@<TRIPOS>ATOM
     1 C         -0.339235   -1.332222   1.697324 C.3        1 UNL1     0.1889
     2 C         -0.466132   -0.974366   0.192074 C.3        1 UNL1     0.1342
     3 C         -1.906081   -0.955248   -0.34332 C.3        1 UNL1     0.1174
     4 C         -2.797072   -2.01339   0.312109 C.3        1 UNL1     0.1456
     5 C         -2.647936   -2.043807   1.844166 C.3        1 UNL1     0.2326
     6 O         -1.28435   -2.267651   2.195444 O.3        1 UNL1     -0.3076
     7 O         -3.219906   -0.896717   2.498655 O.3        1 UNL1     -0.4605
     8 C         -3.732576   -1.114234   3.764902 C.ar        1 UNL1     0.1310
     9 C         -4.553344   -2.185463   4.133832 C.ar        1 UNL1     0.0226
     10 C         -5.009082   -2.328263   5.449815 C.ar        1 UNL1     0.1343
     11 C         -4.635242   -1.415427   6.435114 C.ar        1 UNL1     0.1007
     12 C         -3.849587   -0.318985   6.069947 C.ar        1 UNL1     0.1389
     13 C         -3.393645   -0.174179   4.746097 C.ar        1 UNL1     0.0229
     14 C         -5.018883   -1.564256   7.858077 C.2        1 UNL1     0.1740
     15 C         -4.348262   -0.62128   8.813385 C.3        1 UNL1     0.0520
     16 C         -4.273007   0.752441   8.161324 C.3        1 UNL1     0.1322
     17 O         -3.512507   0.696664   6.934296 O.3        1 UNL1     -0.4828
     18 C         -5.629593   1.450019   8.035692 C.ar        1 UNL1     -0.0067
     19 C         -6.00338   2.020381   6.801518 C.ar        1 UNL1     -0.0516
     20 C         -7.215996   2.706642   6.665251 C.ar        1 UNL1     -0.0198
     21 C         -8.05828   2.835506   7.755104 C.ar        1 UNL1     0.1169
     22 C         -7.73327   2.255993   8.974682 C.ar        1 UNL1     -0.0198
     23 C         -6.529236   1.553832   9.106327 C.ar        1 UNL1     -0.0516
     24 O         -9.213186   3.543174   7.594483 O.3        1 UNL1     -0.5068
     25 O         -5.771479   -2.44456   8.266914 O.2        1 UNL1     -0.2917
     26 O         -5.807661   -3.394679   5.744119 O.3        1 UNL1     -0.5058
     27 O         -0.231287   -0.196874   2.541196 O.3        1 UNL1     -0.3648
     28 O         0.262184   -1.95306   -0.572399 O.3        1 UNL1     -0.3841
     29 O         -2.459074   0.360068   -0.264109 O.3        1 UNL1     -0.3863
     30 O         -2.45323   -3.313829   -0.213553 O.3        1 UNL1     -0.3829
     31 H         0.619457   -1.848776   1.816322 H        1 UNL1     0.0937
     32 H         0.0   0.0   0.0 H        1 UNL1     0.0671
     33 H         -1.868232   -1.191735   -1.415869 H        1 UNL1     0.0649
     34 H         -3.846168   -1.830641   0.054424 H        1 UNL1     0.0683
     35 H         -3.206236   -2.938643   2.146569 H        1 UNL1     0.1085
     36 H         -4.833312   -2.959024   3.42719 H        1 UNL1     0.0691
     37 H         -2.784114   0.68891   4.487173 H        1 UNL1     0.0691
     38 H         -3.347652   -1.015576   9.020359 H        1 UNL1     0.0385
     39 H         -4.909971   -0.603124   9.753562 H        1 UNL1     0.0385
     40 H         -3.67695   1.393502   8.824858 H        1 UNL1     0.0789
     41 H         -5.355479   1.940913   5.933439 H        1 UNL1     0.0623
     42 H         -7.487493   3.152288   5.711468 H        1 UNL1     0.0654
     43 H         -8.392531   2.337938   9.830585 H        1 UNL1     0.0654
     44 H         -6.312213   1.104834   10.070768 H        1 UNL1     0.0623
     45 H         -8.983274   4.452755   7.344444 H        1 UNL1     0.2921
     46 H         -5.407518   -3.910058   6.462229 H        1 UNL1     0.2922
     47 H         0.512354   0.356525   2.264418 H        1 UNL1     0.2126
     48 H         1.195851   -1.8874   -0.293676 H        1 UNL1     0.2101
     49 H         -2.017313   0.942764   -0.902158 H        1 UNL1     0.2100
     50 H         -2.685055   -3.325242   -1.16531 H        1 UNL1     0.2102
@<TRIPOS>BOND
     1     1     2    1
     2     1     6    1
     3     2     3    1
     4     3     4    1
     5     3    29    1
     6     3    33    1
     7     4     5    1
     8     5     6    1
     9     5     7    1
    10     5    35    1
    11     7     8    1
    12     8     9   ar
    13     8    13   ar
    14     9    10   ar
    15     9    36    1
    16    10    11   ar
    17    10    26    1
    18    11    12   ar
    19    11    14    1
    20    12    13   ar
    21    12    17    1
    22    13    37    1
    23    14    15    1
    24    14    25    2
    25    15    16    1
    26    15    38    1
    27    15    39    1
    28    16    17    1
    29    16    18    1
    30    16    40    1
    31    18    19   ar
    32    18    23   ar
    33    19    20   ar
    34    19    41    1
    35    20    21   ar
    36    20    42    1
    37    21    22   ar
    38    21    24    1
    39    22    23   ar
    40    22    43    1
    41    23    44    1
    42    24    45    1
    43    26    46    1
    44    27    47    1
    45    28    48    1
    46    29    49    1
    47    30    50    1
    48     1    31    1
    49     1    27    1
    50     2    32    1
    51     2    28    1
    52     4    34    1
    53     4    30    1
