@<TRIPOS>MOLECULE
*****
 50 53 0 0 0
SMALL
GASTEIGER

@<TRIPOS>ATOM
     1 C         -0.036961   2.164002   -0.294169 C.3        1 UNL1     0.1889
     2 C         0.119481   0.907768   0.604354 C.3        1 UNL1     0.1342
     3 C         -0.848197   0.847278   1.796161 C.3        1 UNL1     0.1174
     4 C         -1.151748   2.227295   2.384826 C.3        1 UNL1     0.1456
     5 C         -1.480215   3.271524   1.30221 C.3        1 UNL1     0.2326
     6 O         -0.403114   3.363109   0.372514 O.3        1 UNL1     -0.3076
     7 O         -2.756266   3.060734   0.670875 O.3        1 UNL1     -0.4605
     8 C         -3.849414   3.005737   1.516764 C.ar        1 UNL1     0.1310
     9 C         -5.010126   3.776776   1.392072 C.ar        1 UNL1     0.0226
     10 C         -6.072959   3.635586   2.29227 C.ar        1 UNL1     0.1343
     11 C         -6.010478   2.702071   3.325947 C.ar        1 UNL1     0.1007
     12 C         -4.840053   1.955395   3.485205 C.ar        1 UNL1     0.1389
     13 C         -3.770464   2.099423   2.581509 C.ar        1 UNL1     0.0229
     14 C         -7.137107   2.452266   4.254633 C.2        1 UNL1     0.1740
     15 C         -6.982252   1.264699   5.158654 C.3        1 UNL1     0.0520
     16 C         -5.540124   1.213492   5.644043 C.3        1 UNL1     0.1322
     17 O         -4.628492   1.086608   4.530537 O.3        1 UNL1     -0.4828
     18 C         -5.182901   2.325946   6.63276 C.ar        1 UNL1     -0.0067
     19 C         -3.832289   2.538835   6.977345 C.ar        1 UNL1     -0.0516
     20 C         -3.475406   3.516135   7.914085 C.ar        1 UNL1     -0.0198
     21 C         -4.458161   4.280359   8.517393 C.ar        1 UNL1     0.1169
     22 C         -5.793921   4.117006   8.174029 C.ar        1 UNL1     -0.0198
     23 C         -6.149446   3.152385   7.223679 C.ar        1 UNL1     -0.0516
     24 O         -4.07598   5.196502   9.452819 O.3        1 UNL1     -0.5068
     25 O         -8.175066   3.108855   4.250461 O.2        1 UNL1     -0.2917
     26 O         -7.176394   4.418486   2.115971 O.3        1 UNL1     -0.5058
     27 O         -0.8355   1.939905   -1.445214 O.3        1 UNL1     -0.3648
     28 O         1.456848   0.891769   1.137175 O.3        1 UNL1     -0.3841
     29 O         -2.029471   0.119627   1.453747 O.3        1 UNL1     -0.3863
     30 O         -0.006758   2.683553   3.1375 O.3        1 UNL1     -0.3829
     31 H         0.957625   2.387511   -0.69532 H        1 UNL1     0.0937
     32 H         0.0   0.0   0.0 H        1 UNL1     0.0671
     33 H         -0.3651   0.261984   2.590999 H        1 UNL1     0.0649
     34 H         -1.990047   2.158253   3.086887 H        1 UNL1     0.0683
     35 H         -1.509535   4.221213   1.850945 H        1 UNL1     0.1085
     36 H         -5.142825   4.479856   0.577095 H        1 UNL1     0.0691
     37 H         -2.869776   1.507148   2.728013 H        1 UNL1     0.0691
     38 H         -7.235518   0.371237   4.578044 H        1 UNL1     0.0385
     39 H         -7.694947   1.348222   5.986222 H        1 UNL1     0.0385
     40 H         -5.420444   0.276712   6.20497 H        1 UNL1     0.0789
     41 H         -3.042948   1.945821   6.524659 H        1 UNL1     0.0623
     42 H         -2.431509   3.662622   8.180231 H        1 UNL1     0.0654
     43 H         -6.570223   4.720364   8.629249 H        1 UNL1     0.0654
     44 H         -7.2014   3.059084   6.971624 H        1 UNL1     0.0623
     45 H         -4.746655   5.897734   9.487249 H        1 UNL1     0.2921
     46 H         -7.386866   4.472713   1.170364 H        1 UNL1     0.2922
     47 H         -1.734527   1.693814   -1.186277 H        1 UNL1     0.2126
     48 H         1.864805   0.054373   0.843794 H        1 UNL1     0.2101
     49 H         -1.918401   -0.300455   0.585998 H        1 UNL1     0.2100
     50 H         0.133728   3.630265   2.928423 H        1 UNL1     0.2102
@<TRIPOS>BOND
     1     1     2    1
     2     1     6    1
     3     2     3    1
     4     3     4    1
     5     3    29    1
     6     3    33    1
     7     4     5    1
     8     5     6    1
     9     5     7    1
    10     5    35    1
    11     7     8    1
    12     8     9   ar
    13     8    13   ar
    14     9    10   ar
    15     9    36    1
    16    10    11   ar
    17    10    26    1
    18    11    12   ar
    19    11    14    1
    20    12    13   ar
    21    12    17    1
    22    13    37    1
    23    14    15    1
    24    14    25    2
    25    15    16    1
    26    15    38    1
    27    15    39    1
    28    16    17    1
    29    16    18    1
    30    16    40    1
    31    18    19   ar
    32    18    23   ar
    33    19    20   ar
    34    19    41    1
    35    20    21   ar
    36    20    42    1
    37    21    22   ar
    38    21    24    1
    39    22    23   ar
    40    22    43    1
    41    23    44    1
    42    24    45    1
    43    26    46    1
    44    27    47    1
    45    28    48    1
    46    29    49    1
    47    30    50    1
    48     1    31    1
    49     1    27    1
    50     2    32    1
    51     2    28    1
    52     4    34    1
    53     4    30    1
