@<TRIPOS>MOLECULE
*****
 50 53 0 0 0
SMALL
GASTEIGER

@<TRIPOS>ATOM
     1 C         -0.324892   -1.331263   1.700879 C.3        1 UNL1     0.1889
     2 C         -0.460281   -0.976434   0.195652 C.3        1 UNL1     0.1342
     3 C         -1.902665   -0.965524   -0.333381 C.3        1 UNL1     0.1174
     4 C         -2.785315   -2.027175   0.327635 C.3        1 UNL1     0.1456
     5 C         -2.629246   -2.054414   1.85906 C.3        1 UNL1     0.2326
     6 O         -1.262991   -2.270728   2.204637 O.3        1 UNL1     -0.3076
     7 O         -3.204181   -0.909235   2.514296 O.3        1 UNL1     -0.4605
     8 C         -3.709697   -1.127269   3.783328 C.ar        1 UNL1     0.1310
     9 C         -4.523024   -2.202184   4.157969 C.ar        1 UNL1     0.0226
     10 C         -4.97177   -2.345116   5.47634 C.ar        1 UNL1     0.1343
     11 C         -4.598112   -1.428612   6.458298 C.ar        1 UNL1     0.1007
     12 C         -3.820012   -0.328665   6.087543 C.ar        1 UNL1     0.1389
     13 C         -3.371112   -0.183739   4.761302 C.ar        1 UNL1     0.0229
     14 C         -4.974224   -1.577006   7.883315 C.2        1 UNL1     0.1740
     15 C         -4.304095   -0.628846   8.833825 C.3        1 UNL1     0.0520
     16 C         -4.239203   0.744124   8.179074 C.3        1 UNL1     0.1322
     17 O         -3.484231   0.690247   6.948552 O.3        1 UNL1     -0.4828
     18 C         -5.600044   1.4343   8.058684 C.ar        1 UNL1     -0.0067
     19 C         -5.983907   1.997984   6.824535 C.ar        1 UNL1     -0.0516
     20 C         -7.200787   2.677535   6.692714 C.ar        1 UNL1     -0.0198
     21 C         -8.03737   2.806316   7.786959 C.ar        1 UNL1     0.1169
     22 C         -7.702319   2.233177   9.006832 C.ar        1 UNL1     -0.0198
     23 C         -6.493968   1.537665   9.134142 C.ar        1 UNL1     -0.0516
     24 O         -9.196792   3.507473   7.630366 O.3        1 UNL1     -0.5068
     25 O         -5.720204   -2.46057   8.297214 O.2        1 UNL1     -0.2917
     26 O         -5.763287   -3.415229   5.776243 O.3        1 UNL1     -0.5058
     27 O         -0.219027   -0.19405   2.5425 O.3        1 UNL1     -0.3648
     28 O         0.269647   -1.952594   -0.570522 O.3        1 UNL1     -0.3841
     29 O         -2.46203   0.34707   -0.253762 O.3        1 UNL1     -0.3863
     30 O         -2.437148   -3.326665   -0.197527 O.3        1 UNL1     -0.3829
     31 H         0.63695   -1.842719   1.816427 H        1 UNL1     0.0937
     32 H         0.0   0.0   0.0 H        1 UNL1     0.0671
     33 H         -1.868352   -1.203504   -1.405719 H        1 UNL1     0.0649
     34 H         -3.836463   -1.8502   0.07432 H        1 UNL1     0.0683
     35 H         -3.181613   -2.951617   2.165325 H        1 UNL1     0.1085
     36 H         -4.802231   -2.978436   3.453983 H        1 UNL1     0.0691
     37 H         -2.767392   0.682112   4.498021 H        1 UNL1     0.0691
     38 H         -3.300443   -1.017486   9.036726 H        1 UNL1     0.0385
     39 H         -4.861438   -0.612034   9.776621 H        1 UNL1     0.0385
     40 H         -3.643417   1.389475   8.838681 H        1 UNL1     0.0789
     41 H         -5.340665   1.918465   5.953004 H        1 UNL1     0.0623
     42 H         -7.480096   3.118109   5.738831 H        1 UNL1     0.0654
     43 H         -8.357005   2.315069   9.866245 H        1 UNL1     0.0654
     44 H         -6.269052   1.093502   10.099013 H        1 UNL1     0.0623
     45 H         -8.973198   4.415431   7.368957 H        1 UNL1     0.2921
     46 H         -5.355694   -3.928743   6.491493 H        1 UNL1     0.2922
     47 H         0.522345   0.361209   2.263367 H        1 UNL1     0.2126
     48 H         1.203088   -1.886364   -0.291176 H        1 UNL1     0.2101
     49 H         -2.025909   0.931076   -0.894487 H        1 UNL1     0.2100
     50 H         -2.673121   -3.340763   -1.148227 H        1 UNL1     0.2102
@<TRIPOS>BOND
     1     1     2    1
     2     1     6    1
     3     2     3    1
     4     3     4    1
     5     3    29    1
     6     3    33    1
     7     4     5    1
     8     5     6    1
     9     5     7    1
    10     5    35    1
    11     7     8    1
    12     8     9   ar
    13     8    13   ar
    14     9    10   ar
    15     9    36    1
    16    10    11   ar
    17    10    26    1
    18    11    12   ar
    19    11    14    1
    20    12    13   ar
    21    12    17    1
    22    13    37    1
    23    14    15    1
    24    14    25    2
    25    15    16    1
    26    15    38    1
    27    15    39    1
    28    16    17    1
    29    16    18    1
    30    16    40    1
    31    18    19   ar
    32    18    23   ar
    33    19    20   ar
    34    19    41    1
    35    20    21   ar
    36    20    42    1
    37    21    22   ar
    38    21    24    1
    39    22    23   ar
    40    22    43    1
    41    23    44    1
    42    24    45    1
    43    26    46    1
    44    27    47    1
    45    28    48    1
    46    29    49    1
    47    30    50    1
    48     1    31    1
    49     1    27    1
    50     2    32    1
    51     2    28    1
    52     4    34    1
    53     4    30    1
