@<TRIPOS>MOLECULE
*****
 50 53 0 0 0
SMALL
GASTEIGER

@<TRIPOS>ATOM
     1 C         -0.264445   -1.401861   1.653983 C.3        1 UNL1     0.1889
     2 C         -0.450001   -0.986004   0.169876 C.3        1 UNL1     0.1342
     3 C         -1.908841   -0.960667   -0.311381 C.3        1 UNL1     0.1174
     4 C         -2.765545   -2.053146   0.33334 C.3        1 UNL1     0.1456
     5 C         -2.559703   -2.14267   1.856487 C.3        1 UNL1     0.2326
     6 O         -1.182137   -2.366063   2.148505 O.3        1 UNL1     -0.3076
     7 O         -3.117356   -1.028413   2.576748 O.3        1 UNL1     -0.4605
     8 C         -3.587868   -1.302825   3.848299 C.ar        1 UNL1     0.1310
     9 C         -4.389885   -2.394686   4.197456 C.ar        1 UNL1     0.0226
     10 C         -4.802356   -2.596121   5.520027 C.ar        1 UNL1     0.1343
     11 C         -4.402682   -1.722818   6.530693 C.ar        1 UNL1     0.1007
     12 C         -3.635792   -0.606188   6.187475 C.ar        1 UNL1     0.1389
     13 C         -3.223383   -0.402416   4.857127 C.ar        1 UNL1     0.0229
     14 C         -4.73963   -1.934245   7.957549 C.2        1 UNL1     0.1740
     15 C         -4.044477   -1.02737   8.930118 C.3        1 UNL1     0.0520
     16 C         -3.998482   0.373099   8.334695 C.3        1 UNL1     0.1322
     17 O         -3.277358   0.374652   7.082877 O.3        1 UNL1     -0.4828
     18 C         -5.362601   1.065275   8.281824 C.ar        1 UNL1     -0.0067
     19 C         -5.772824   1.697176   7.089921 C.ar        1 UNL1     -0.0516
     20 C         -6.993233   2.379789   7.022072 C.ar        1 UNL1     -0.0198
     21 C         -7.807173   2.443845   8.138864 C.ar        1 UNL1     0.1169
     22 C         -7.446032   1.803181   9.316985 C.ar        1 UNL1     -0.0198
     23 C         -6.234219   1.104867   9.379599 C.ar        1 UNL1     -0.0516
     24 O         -8.970683   3.149594   8.046335 O.3        1 UNL1     -0.5068
     25 O         -5.47339   -2.83653   8.35247 O.2        1 UNL1     -0.2917
     26 O         -5.584615   -3.679867   5.794162 O.3        1 UNL1     -0.5058
     27 O         -0.135576   -0.299769   2.538049 O.3        1 UNL1     -0.3648
     28 O         0.258321   -1.926024   -0.659188 O.3        1 UNL1     -0.3841
     29 O         -2.470265   0.344659   -0.159524 O.3        1 UNL1     -0.3863
     30 O         -2.429731   -3.328098   -0.256081 O.3        1 UNL1     -0.3829
     31 H         0.702563   -1.912728   1.71715 H        1 UNL1     0.0937
     32 H         0.0   0.0   0.0 H        1 UNL1     0.0671
     33 H         -1.908489   -1.154079   -1.39319 H        1 UNL1     0.0649
     34 H         -3.825027   -1.871251   0.12165 H        1 UNL1     0.0683
     35 H         -3.098445   -3.054539   2.143075 H        1 UNL1     0.1085
     36 H         -4.687653   -3.139872   3.467969 H        1 UNL1     0.0691
     37 H         -2.627703   0.475299   4.615723 H        1 UNL1     0.0691
     38 H         -3.035379   -1.422603   9.08835 H        1 UNL1     0.0385
     39 H         -4.575877   -1.052964   9.887582 H        1 UNL1     0.0385
     40 H         -3.385371   0.990063   9.005493 H        1 UNL1     0.0789
     41 H         -5.147648   1.669108   6.202218 H        1 UNL1     0.0623
     42 H         -7.292927   2.873128   6.100762 H        1 UNL1     0.0654
     43 H         -8.082905   1.834276   10.192962 H        1 UNL1     0.0654
     44 H         -5.988672   0.607171   10.312792 H        1 UNL1     0.0623
     45 H         -8.753494   4.073576   7.841875 H        1 UNL1     0.2921
     46 H         -5.158555   -4.222034   6.476759 H        1 UNL1     0.2922
     47 H         0.591487   0.272596   2.255846 H        1 UNL1     0.2126
     48 H         1.202478   -1.853617   -0.42032 H        1 UNL1     0.2101
     49 H         -2.063494   0.954845   -0.795138 H        1 UNL1     0.2100
     50 H         -2.70157   -3.30623   -1.197005 H        1 UNL1     0.2102
@<TRIPOS>BOND
     1     1     2    1
     2     1     6    1
     3     2     3    1
     4     3     4    1
     5     3    29    1
     6     3    33    1
     7     4     5    1
     8     5     6    1
     9     5     7    1
    10     5    35    1
    11     7     8    1
    12     8     9   ar
    13     8    13   ar
    14     9    10   ar
    15     9    36    1
    16    10    11   ar
    17    10    26    1
    18    11    12   ar
    19    11    14    1
    20    12    13   ar
    21    12    17    1
    22    13    37    1
    23    14    15    1
    24    14    25    2
    25    15    16    1
    26    15    38    1
    27    15    39    1
    28    16    17    1
    29    16    18    1
    30    16    40    1
    31    18    19   ar
    32    18    23   ar
    33    19    20   ar
    34    19    41    1
    35    20    21   ar
    36    20    42    1
    37    21    22   ar
    38    21    24    1
    39    22    23   ar
    40    22    43    1
    41    23    44    1
    42    24    45    1
    43    26    46    1
    44    27    47    1
    45    28    48    1
    46    29    49    1
    47    30    50    1
    48     1    31    1
    49     1    27    1
    50     2    32    1
    51     2    28    1
    52     4    34    1
    53     4    30    1
