@<TRIPOS>MOLECULE
*****
 50 53 0 0 0
SMALL
GASTEIGER

@<TRIPOS>ATOM
     1 C         0.911715   1.671446   -1.070444 C.3        1 UNL1     0.1889
     2 C         0.076317   1.089689   0.101567 C.3        1 UNL1     0.1342
     3 C         -1.335423   1.680353   0.237852 C.3        1 UNL1     0.1174
     4 C         -1.397517   3.162654   -0.139036 C.3        1 UNL1     0.1456
     5 C         -0.663668   3.467617   -1.457682 C.3        1 UNL1     0.2326
     6 O         0.694405   3.042887   -1.36763 O.3        1 UNL1     -0.3076
     7 O         -1.340031   2.95778   -2.621263 O.3        1 UNL1     -0.4605
     8 C         -2.633568   2.509567   -2.42278 C.ar        1 UNL1     0.1310
     9 C         -3.024088   1.168143   -2.349454 C.ar        1 UNL1     0.0226
     10 C         -4.360408   0.814466   -2.12795 C.ar        1 UNL1     0.1343
     11 C         -5.335722   1.794828   -1.950484 C.ar        1 UNL1     0.1007
     12 C         -4.964921   3.137496   -2.06244 C.ar        1 UNL1     0.1389
     13 C         -3.621647   3.492827   -2.287799 C.ar        1 UNL1     0.0229
     14 C         -6.746937   1.478215   -1.630511 C.2        1 UNL1     0.1740
     15 C         -7.605709   2.649468   -1.253383 C.3        1 UNL1     0.0520
     16 C         -7.25115   3.819018   -2.161347 C.3        1 UNL1     0.1322
     17 O         -5.86039   4.180521   -2.012445 O.3        1 UNL1     -0.4828
     18 C         -7.706828   3.634023   -3.610781 C.ar        1 UNL1     -0.0067
     19 C         -9.03049   3.963448   -3.968007 C.ar        1 UNL1     -0.0516
     20 C         -9.493445   3.761903   -5.273769 C.ar        1 UNL1     -0.0198
     21 C         -8.646651   3.22597   -6.227467 C.ar        1 UNL1     0.1169
     22 C         -7.327941   2.922783   -5.914546 C.ar        1 UNL1     -0.0198
     23 C         -6.859325   3.141452   -4.613531 C.ar        1 UNL1     -0.0516
     24 O         -9.143858   3.008597   -7.478841 O.3        1 UNL1     -0.5068
     25 O         -7.19069   0.333687   -1.590204 O.2        1 UNL1     -0.2917
     26 O         -4.675662   -0.51167   -2.068255 O.3        1 UNL1     -0.5058
     27 O         0.878279   0.87025   -2.240809 O.3        1 UNL1     -0.3648
     28 O         0.772423   1.354926   1.333554 O.3        1 UNL1     -0.3841
     29 O         -2.28759   0.887831   -0.474481 O.3        1 UNL1     -0.3863
     30 O         -0.799119   3.9454   0.91686 O.3        1 UNL1     -0.3829
     31 H         1.959701   1.641211   -0.752812 H        1 UNL1     0.0937
     32 H         -0.0   0.0   0.0 H        1 UNL1     0.0671
     33 H         -1.628382   1.608588   1.294613 H        1 UNL1     0.0649
     34 H         -2.44166   3.483604   -0.223639 H        1 UNL1     0.0683
     35 H         -0.652481   4.563673   -1.506814 H        1 UNL1     0.1085
     36 H         -2.304714   0.359968   -2.423451 H        1 UNL1     0.0691
     37 H         -3.359037   4.545175   -2.372014 H        1 UNL1     0.0691
     38 H         -7.399456   2.887202   -0.204351 H        1 UNL1     0.0385
     39 H         -8.659739   2.363901   -1.33854 H        1 UNL1     0.0385
     40 H         -7.803271   4.694061   -1.792592 H        1 UNL1     0.0789
     41 H         -9.717476   4.37697   -3.235408 H        1 UNL1     0.0623
     42 H         -10.519794   4.008818   -5.53387 H        1 UNL1     0.0654
     43 H         -6.651933   2.516692   -6.657523 H        1 UNL1     0.0654
     44 H         -5.820411   2.903096   -4.406919 H        1 UNL1     0.0623
     45 H         -8.755877   3.663921   -8.081117 H        1 UNL1     0.2921
     46 H         -5.630463   -0.623457   -2.199672 H        1 UNL1     0.2922
     47 H         0.160339   0.224345   -2.183995 H        1 UNL1     0.2126
     48 H         1.424045   0.636405   1.446904 H        1 UNL1     0.2101
     49 H         -1.897438   0.029017   -0.702548 H        1 UNL1     0.2100
     50 H         -0.433738   4.761705   0.517039 H        1 UNL1     0.2102
@<TRIPOS>BOND
     1     1     2    1
     2     1     6    1
     3     2     3    1
     4     3     4    1
     5     3    29    1
     6     3    33    1
     7     4     5    1
     8     5     6    1
     9     5     7    1
    10     5    35    1
    11     7     8    1
    12     8     9   ar
    13     8    13   ar
    14     9    10   ar
    15     9    36    1
    16    10    11   ar
    17    10    26    1
    18    11    12   ar
    19    11    14    1
    20    12    13   ar
    21    12    17    1
    22    13    37    1
    23    14    15    1
    24    14    25    2
    25    15    16    1
    26    15    38    1
    27    15    39    1
    28    16    17    1
    29    16    18    1
    30    16    40    1
    31    18    19   ar
    32    18    23   ar
    33    19    20   ar
    34    19    41    1
    35    20    21   ar
    36    20    42    1
    37    21    22   ar
    38    21    24    1
    39    22    23   ar
    40    22    43    1
    41    23    44    1
    42    24    45    1
    43    26    46    1
    44    27    47    1
    45    28    48    1
    46    29    49    1
    47    30    50    1
    48     1    31    1
    49     1    27    1
    50     2    32    1
    51     2    28    1
    52     4    34    1
    53     4    30    1
