@<TRIPOS>MOLECULE
*****
 50 53 0 0 0
SMALL
GASTEIGER

@<TRIPOS>ATOM
     1 C         -0.320539   -1.322543   1.70849 C.3        1 UNL1     0.1889
     2 C         -0.456432   -0.977129   0.201121 C.3        1 UNL1     0.1342
     3 C         -1.898519   -0.975197   -0.328831 C.3        1 UNL1     0.1174
     4 C         -2.77726   -2.036521   0.337894 C.3        1 UNL1     0.1456
     5 C         -2.622034   -2.054115   1.869547 C.3        1 UNL1     0.2326
     6 O         -1.255127   -2.262835   2.217207 O.3        1 UNL1     -0.3076
     7 O         -3.202024   -0.907448   2.517687 O.3        1 UNL1     -0.4605
     8 C         -3.707439   -1.120066   3.787678 C.ar        1 UNL1     0.1310
     9 C         -4.516626   -2.196057   4.168153 C.ar        1 UNL1     0.0226
     10 C         -4.965607   -2.333053   5.487073 C.ar        1 UNL1     0.1343
     11 C         -4.596286   -1.409277   6.463843 C.ar        1 UNL1     0.1007
     12 C         -3.82243   -0.308375   6.087087 C.ar        1 UNL1     0.1389
     13 C         -3.373298   -0.169431   4.760284 C.ar        1 UNL1     0.0229
     14 C         -4.972678   -1.550812   7.889484 C.2        1 UNL1     0.1740
     15 C         -4.306998   -0.59436   8.834798 C.3        1 UNL1     0.0520
     16 C         -4.247277   0.774987   8.172016 C.3        1 UNL1     0.1322
     17 O         -3.491327   0.716942   6.942284 O.3        1 UNL1     -0.4828
     18 C         -5.610835   1.458903   8.046752 C.ar        1 UNL1     -0.0067
     19 C         -5.996169   2.013855   6.809109 C.ar        1 UNL1     -0.0516
     20 C         -7.215716   2.687667   6.672569 C.ar        1 UNL1     -0.0198
     21 C         -8.053544   2.819381   7.765511 C.ar        1 UNL1     0.1169
     22 C         -7.716974   2.254693   8.988903 C.ar        1 UNL1     -0.0198
     23 C         -6.505887   1.56486   9.121019 C.ar        1 UNL1     -0.0516
     24 O         -9.215705   3.514889   7.604111 O.3        1 UNL1     -0.5068
     25 O         -5.71532   -2.434952   8.30813 O.2        1 UNL1     -0.2917
     26 O         -5.752957   -3.404593   5.792796 O.3        1 UNL1     -0.5058
     27 O         -0.219818   -0.179978   2.543466 O.3        1 UNL1     -0.3648
     28 O         0.277932   -1.954804   -0.558859 O.3        1 UNL1     -0.3841
     29 O         -2.463262   0.335557   -0.257272 O.3        1 UNL1     -0.3863
     30 O         -2.42349   -3.337652   -0.179402 O.3        1 UNL1     -0.3829
     31 H         0.643301   -1.829396   1.827621 H        1 UNL1     0.0937
     32 H         0.0   0.0   0.0 H        1 UNL1     0.0671
     33 H         -1.862573   -1.21934   -1.399729 H        1 UNL1     0.0649
     34 H         -3.828961   -1.865314   0.082914 H        1 UNL1     0.0683
     35 H         -3.170942   -2.951739   2.180757 H        1 UNL1     0.1085
     36 H         -4.792239   -2.977566   3.46858 H        1 UNL1     0.0691
     37 H         -2.772937   0.697304   4.492272 H        1 UNL1     0.0691
     38 H         -3.301902   -0.977716   9.040582 H        1 UNL1     0.0385
     39 H         -4.864991   -0.574268   9.777145 H        1 UNL1     0.0385
     40 H         -3.654528   1.426624   8.82817 H        1 UNL1     0.0789
     41 H         -5.352029   1.931905   5.938466 H        1 UNL1     0.0623
     42 H         -7.496182   3.121561   5.715967 H        1 UNL1     0.0654
     43 H         -8.372559   2.338899   9.847406 H        1 UNL1     0.0654
     44 H         -6.279806   1.127218   10.088595 H        1 UNL1     0.0623
     45 H         -8.995621   4.422341   7.338008 H        1 UNL1     0.2921
     46 H         -5.343769   -3.91218   6.511359 H        1 UNL1     0.2922
     47 H         0.519466   0.376639   2.261514 H        1 UNL1     0.2126
     48 H         1.21098   -1.882893   -0.279606 H        1 UNL1     0.2101
     49 H         -2.029118   0.917553   -0.901163 H        1 UNL1     0.2100
     50 H         -2.658813   -3.358302   -1.130143 H        1 UNL1     0.2102
@<TRIPOS>BOND
     1     1     2    1
     2     1     6    1
     3     2     3    1
     4     3     4    1
     5     3    29    1
     6     3    33    1
     7     4     5    1
     8     5     6    1
     9     5     7    1
    10     5    35    1
    11     7     8    1
    12     8     9   ar
    13     8    13   ar
    14     9    10   ar
    15     9    36    1
    16    10    11   ar
    17    10    26    1
    18    11    12   ar
    19    11    14    1
    20    12    13   ar
    21    12    17    1
    22    13    37    1
    23    14    15    1
    24    14    25    2
    25    15    16    1
    26    15    38    1
    27    15    39    1
    28    16    17    1
    29    16    18    1
    30    16    40    1
    31    18    19   ar
    32    18    23   ar
    33    19    20   ar
    34    19    41    1
    35    20    21   ar
    36    20    42    1
    37    21    22   ar
    38    21    24    1
    39    22    23   ar
    40    22    43    1
    41    23    44    1
    42    24    45    1
    43    26    46    1
    44    27    47    1
    45    28    48    1
    46    29    49    1
    47    30    50    1
    48     1    31    1
    49     1    27    1
    50     2    32    1
    51     2    28    1
    52     4    34    1
    53     4    30    1
