@<TRIPOS>MOLECULE
*****
 50 53 0 0 0
SMALL
GASTEIGER

@<TRIPOS>ATOM
     1 C         -0.405166   -1.359571   1.660786 C.3        1 UNL1     0.1889
     2 C         -0.500478   -0.962549   0.163045 C.3        1 UNL1     0.1342
     3 C         -1.931881   -0.883004   -0.389426 C.3        1 UNL1     0.1174
     4 C         -2.865779   -1.925972   0.22958 C.3        1 UNL1     0.1456
     5 C         -2.737798   -1.997195   1.762196 C.3        1 UNL1     0.2326
     6 O         -1.387049   -2.274445   2.124799 O.3        1 UNL1     -0.3076
     7 O         -3.280157   -0.847348   2.436748 O.3        1 UNL1     -0.4605
     8 C         -3.815829   -1.07719   3.691242 C.ar        1 UNL1     0.1310
     9 C         -4.675937   -2.12897   4.02482 C.ar        1 UNL1     0.0226
     10 C         -5.152897   -2.287197   5.331486 C.ar        1 UNL1     0.1343
     11 C         -4.761943   -1.410405   6.342541 C.ar        1 UNL1     0.1007
     12 C         -3.936147   -0.33236   6.0129 C.ar        1 UNL1     0.1389
     13 C         -3.458818   -0.171952   4.698421 C.ar        1 UNL1     0.0229
     14 C         -5.168416   -1.579531   7.756872 C.2        1 UNL1     0.1740
     15 C         -4.479494   -0.681748   8.742225 C.3        1 UNL1     0.0520
     16 C         -4.350897   0.703533   8.123826 C.3        1 UNL1     0.1322
     17 O         -3.577013   0.651191   6.905042 O.3        1 UNL1     -0.4828
     18 C         -5.682158   1.44835   7.998466 C.ar        1 UNL1     -0.0067
     19 C         -6.022488   2.056945   6.772904 C.ar        1 UNL1     -0.0516
     20 C         -7.210117   2.785894   6.638245 C.ar        1 UNL1     -0.0198
     21 C         -8.060345   2.919488   7.721338 C.ar        1 UNL1     0.1169
     22 C         -7.768893   2.303682   8.931576 C.ar        1 UNL1     -0.0198
     23 C         -6.590313   1.55923   9.061177 C.ar        1 UNL1     -0.0516
     24 O         -9.189308   3.668426   7.563427 O.3        1 UNL1     -0.5068
     25 O         -5.954643   -2.443727   8.135682 O.2        1 UNL1     -0.2917
     26 O         -5.989718   -3.333164   5.590845 O.3        1 UNL1     -0.5058
     27 O         -0.270902   -0.248512   2.532743 O.3        1 UNL1     -0.3648
     28 O         0.205121   -1.946765   -0.615514 O.3        1 UNL1     -0.3841
     29 O         -2.442197   0.447767   -0.285702 O.3        1 UNL1     -0.3863
     30 O         -2.558147   -3.224467   -0.322655 O.3        1 UNL1     -0.3829
     31 H         0.534333   -1.91038   1.779231 H        1 UNL1     0.0937
     32 H         0.0   0.0   0.0 H        1 UNL1     0.0671
     33 H         -1.88781   -1.095443   -1.46676 H        1 UNL1     0.0649
     34 H         -3.904815   -1.702437   -0.03657 H        1 UNL1     0.0683
     35 H         -3.329209   -2.879796   2.036291 H        1 UNL1     0.1085
     36 H         -4.97207   -2.87619   3.296749 H        1 UNL1     0.0691
     37 H         -2.818047   0.676287   4.467345 H        1 UNL1     0.0691
     38 H         -3.495082   -1.113646   8.951805 H        1 UNL1     0.0385
     39 H         -5.052276   -0.666899   9.675755 H        1 UNL1     0.0385
     40 H         -3.742665   1.308905   8.809463 H        1 UNL1     0.0789
     41 H         -5.36748   1.974457   5.910459 H        1 UNL1     0.0623
     42 H         -7.455608   3.260506   5.691413 H        1 UNL1     0.0654
     43 H         -8.435031   2.389283   9.781778 H        1 UNL1     0.0654
     44 H         -6.399497   1.082853   10.017994 H        1 UNL1     0.0623
     45 H         -8.926727   4.573613   7.330182 H        1 UNL1     0.2921
     46 H         -5.61523   -3.878849   6.30035 H        1 UNL1     0.2922
     47 H         0.495756   0.28465   2.280092 H        1 UNL1     0.2126
     48 H         1.13557   -1.92272   -0.31985 H        1 UNL1     0.2101
     49 H         -1.97303   1.030257   -0.904073 H        1 UNL1     0.2100
     50 H         -2.777741   -3.205874   -1.277194 H        1 UNL1     0.2102
@<TRIPOS>BOND
     1     1     2    1
     2     1     6    1
     3     2     3    1
     4     3     4    1
     5     3    29    1
     6     3    33    1
     7     4     5    1
     8     5     6    1
     9     5     7    1
    10     5    35    1
    11     7     8    1
    12     8     9   ar
    13     8    13   ar
    14     9    10   ar
    15     9    36    1
    16    10    11   ar
    17    10    26    1
    18    11    12   ar
    19    11    14    1
    20    12    13   ar
    21    12    17    1
    22    13    37    1
    23    14    15    1
    24    14    25    2
    25    15    16    1
    26    15    38    1
    27    15    39    1
    28    16    17    1
    29    16    18    1
    30    16    40    1
    31    18    19   ar
    32    18    23   ar
    33    19    20   ar
    34    19    41    1
    35    20    21   ar
    36    20    42    1
    37    21    22   ar
    38    21    24    1
    39    22    23   ar
    40    22    43    1
    41    23    44    1
    42    24    45    1
    43    26    46    1
    44    27    47    1
    45    28    48    1
    46    29    49    1
    47    30    50    1
    48     1    31    1
    49     1    27    1
    50     2    32    1
    51     2    28    1
    52     4    34    1
    53     4    30    1
