@<TRIPOS>MOLECULE
*****
 50 53 0 0 0
SMALL
GASTEIGER

@<TRIPOS>ATOM
     1 C         -0.393854   -1.378397   1.647939 C.3        1 UNL1     0.1889
     2 C         -0.493017   -0.967858   0.154097 C.3        1 UNL1     0.1342
     3 C         -1.925288   -0.894002   -0.396911 C.3        1 UNL1     0.1174
     4 C         -2.850848   -1.949935   0.212566 C.3        1 UNL1     0.1456
     5 C         -2.721487   -2.03478   1.744373 C.3        1 UNL1     0.2326
     6 O         -1.368461   -2.305134   2.103674 O.3        1 UNL1     -0.3076
     7 O         -3.27225   -0.895597   2.430114 O.3        1 UNL1     -0.4605
     8 C         -3.740372   -1.12712   3.711046 C.ar        1 UNL1     0.1310
     9 C         -2.982695   -1.020529   4.882313 C.ar        1 UNL1     0.0226
     10 C         -3.553792   -1.259453   6.137967 C.ar        1 UNL1     0.1343
     11 C         -4.903748   -1.587856   6.254632 C.ar        1 UNL1     0.1007
     12 C         -5.660522   -1.737402   5.089423 C.ar        1 UNL1     0.1389
     13 C         -5.085401   -1.499696   3.826822 C.ar        1 UNL1     0.0229
     14 C         -5.578571   -1.768736   7.560791 C.2        1 UNL1     0.1740
     15 C         -7.072678   -1.896606   7.507475 C.3        1 UNL1     0.0520
     16 C         -7.4398   -2.760947   6.309105 C.3        1 UNL1     0.1322
     17 O         -6.968833   -2.162288   5.08156 O.3        1 UNL1     -0.4828
     18 C         -7.070549   -4.236747   6.477606 C.ar        1 UNL1     -0.0067
     19 C         -5.839036   -4.704298   5.974628 C.ar        1 UNL1     -0.0516
     20 C         -5.491273   -6.057056   6.069867 C.ar        1 UNL1     -0.0198
     21 C         -6.367572   -6.951545   6.657928 C.ar        1 UNL1     0.1169
     22 C         -7.573011   -6.51562   7.192461 C.ar        1 UNL1     -0.0198
     23 C         -7.912931   -5.159769   7.113857 C.ar        1 UNL1     -0.0516
     24 O         -6.011234   -8.267506   6.698814 O.3        1 UNL1     -0.5068
     25 O         -4.98755   -1.738877   8.637028 O.2        1 UNL1     -0.2917
     26 O         -2.760089   -1.139838   7.241286 O.3        1 UNL1     -0.5058
     27 O         -0.267608   -0.274705   2.530386 O.3        1 UNL1     -0.3648
     28 O         0.219657   -1.939184   -0.634146 O.3        1 UNL1     -0.3841
     29 O         -2.445704   0.431778   -0.28026 O.3        1 UNL1     -0.3863
     30 O         -2.533603   -3.240716   -0.352171 O.3        1 UNL1     -0.3829
     31 H         0.549893   -1.923108   1.760681 H        1 UNL1     0.0937
     32 H         0.0   0.0   0.0 H        1 UNL1     0.0671
     33 H         -1.880185   -1.09582   -1.476242 H        1 UNL1     0.0649
     34 H         -3.891708   -1.731826   -0.050948 H        1 UNL1     0.0683
     35 H         -3.305985   -2.924451   2.01032 H        1 UNL1     0.1085
     36 H         -1.942501   -0.714375   4.862664 H        1 UNL1     0.0691
     37 H         -5.695692   -1.623945   2.934858 H        1 UNL1     0.0691
     38 H         -7.488086   -0.888006   7.409044 H        1 UNL1     0.0385
     39 H         -7.430298   -2.32326   8.450795 H        1 UNL1     0.0385
     40 H         -8.534515   -2.743566   6.220684 H        1 UNL1     0.0789
     41 H         -5.137866   -4.023782   5.500383 H        1 UNL1     0.0623
     42 H         -4.543934   -6.407366   5.66757 H        1 UNL1     0.0654
     43 H         -8.260005   -7.20503   7.668554 H        1 UNL1     0.0654
     44 H         -8.857898   -4.852425   7.551376 H        1 UNL1     0.0623
     45 H         -5.33245   -8.422607   6.022121 H        1 UNL1     0.2921
     46 H         -1.829198   -1.114098   6.968903 H        1 UNL1     0.2922
     47 H         -0.355462   -0.567992   3.44806 H        1 UNL1     0.2126
     48 H         0.952493   -1.462671   -1.069598 H        1 UNL1     0.2101
     49 H         -3.002751   0.499163   0.511542 H        1 UNL1     0.2100
     50 H         -1.580631   -3.244507   -0.579203 H        1 UNL1     0.2102
@<TRIPOS>BOND
     1     1     2    1
     2     1     6    1
     3     2     3    1
     4     3     4    1
     5     3    29    1
     6     3    33    1
     7     4     5    1
     8     5     6    1
     9     5     7    1
    10     5    35    1
    11     7     8    1
    12     8     9   ar
    13     8    13   ar
    14     9    10   ar
    15     9    36    1
    16    10    11   ar
    17    10    26    1
    18    11    12   ar
    19    11    14    1
    20    12    13   ar
    21    12    17    1
    22    13    37    1
    23    14    15    1
    24    14    25    2
    25    15    16    1
    26    15    38    1
    27    15    39    1
    28    16    17    1
    29    16    18    1
    30    16    40    1
    31    18    19   ar
    32    18    23   ar
    33    19    20   ar
    34    19    41    1
    35    20    21   ar
    36    20    42    1
    37    21    22   ar
    38    21    24    1
    39    22    23   ar
    40    22    43    1
    41    23    44    1
    42    24    45    1
    43    26    46    1
    44    27    47    1
    45    28    48    1
    46    29    49    1
    47    30    50    1
    48     1    31    1
    49     1    27    1
    50     2    32    1
    51     2    28    1
    52     4    34    1
    53     4    30    1
