@<TRIPOS>MOLECULE
*****
 50 53 0 0 0
SMALL
GASTEIGER

@<TRIPOS>ATOM
     1 C         2.110506   0.440414   0.35015 C.3        1 UNL1     0.1889
     2 C         0.704389   0.00249   0.841066 C.3        1 UNL1     0.1342
     3 C         0.125765   0.860329   1.976747 C.3        1 UNL1     0.1174
     4 C         1.19826   1.363009   2.946378 C.3        1 UNL1     0.1456
     5 C         2.424726   1.944778   2.219956 C.3        1 UNL1     0.2326
     6 O         2.978942   0.96712   1.342518 O.3        1 UNL1     -0.3076
     7 O         2.163758   3.203282   1.572356 O.3        1 UNL1     -0.4605
     8 C         3.227149   4.085933   1.511894 C.ar        1 UNL1     0.1310
     9 C         3.88359   4.640673   2.615818 C.ar        1 UNL1     0.0226
     10 C         4.964835   5.514532   2.450946 C.ar        1 UNL1     0.1343
     11 C         5.431481   5.83649   1.177202 C.ar        1 UNL1     0.1007
     12 C         4.758203   5.321143   0.066393 C.ar        1 UNL1     0.1389
     13 C         3.669379   4.444594   0.232396 C.ar        1 UNL1     0.0229
     14 C         6.621742   6.687611   0.946928 C.2        1 UNL1     0.1740
     15 C         7.113172   6.747101   -0.469584 C.3        1 UNL1     0.0520
     16 C         5.906738   6.819464   -1.395455 C.3        1 UNL1     0.1322
     17 O         5.064387   5.657241   -1.231897 O.3        1 UNL1     -0.4828
     18 C         5.162781   8.155719   -1.334838 C.ar        1 UNL1     -0.0067
     19 C         4.146495   8.425778   -2.274224 C.ar        1 UNL1     -0.0516
     20 C         3.479028   9.656406   -2.27654 C.ar        1 UNL1     -0.0198
     21 C         3.822902   10.625795   -1.351412 C.ar        1 UNL1     0.1169
     22 C         4.7963   10.377087   -0.392516 C.ar        1 UNL1     -0.0198
     23 C         5.451108   9.139719   -0.378278 C.ar        1 UNL1     -0.0516
     24 O         3.177396   11.825999   -1.408262 O.3        1 UNL1     -0.5068
     25 O         7.233315   7.253216   1.849455 O.2        1 UNL1     -0.2917
     26 O         5.560771   6.02197   3.568511 O.3        1 UNL1     -0.5058
     27 O         2.07509   1.263276   -0.805026 O.3        1 UNL1     -0.3648
     28 O         0.791776   -1.349725   1.327464 O.3        1 UNL1     -0.3841
     29 O         -0.685043   1.914318   1.45346 O.3        1 UNL1     -0.3863
     30 O         1.630658   0.268443   3.783424 O.3        1 UNL1     -0.3829
     31 H         2.623071   -0.468943   0.017849 H        1 UNL1     0.0937
     32 H         -0.0   0.0   0.0 H        1 UNL1     0.0671
     33 H         -0.558331   0.227861   2.5596 H        1 UNL1     0.0649
     34 H         0.775126   2.12578   3.609356 H        1 UNL1     0.0683
     35 H         3.156081   2.104594   3.022113 H        1 UNL1     0.1085
     36 H         3.604521   4.386024   3.632378 H        1 UNL1     0.0691
     37 H         3.161525   4.057914   -0.648544 H        1 UNL1     0.0691
     38 H         7.699556   5.84085   -0.655032 H        1 UNL1     0.0385
     39 H         7.775223   7.612217   -0.583786 H        1 UNL1     0.0385
     40 H         6.283345   6.742967   -2.424452 H        1 UNL1     0.0789
     41 H         3.864426   7.684782   -3.016526 H        1 UNL1     0.0623
     42 H         2.705382   9.857059   -3.013575 H        1 UNL1     0.0654
     43 H         5.062903   11.123612   0.346086 H        1 UNL1     0.0654
     44 H         6.198919   8.975741   0.391615 H        1 UNL1     0.0623
     45 H         2.792491   11.925565   -2.294068 H        1 UNL1     0.2921
     46 H         6.524945   5.975054   3.470643 H        1 UNL1     0.2922
     47 H         1.476505   0.887467   -1.465573 H        1 UNL1     0.2126
     48 H         0.534335   -1.930848   0.586011 H        1 UNL1     0.2101
     49 H         -0.164952   2.731339   1.392002 H        1 UNL1     0.2100
     50 H         2.494699   -0.04632   3.445681 H        1 UNL1     0.2102
@<TRIPOS>BOND
     1     1     2    1
     2     1     6    1
     3     2     3    1
     4     3     4    1
     5     3    29    1
     6     3    33    1
     7     4     5    1
     8     5     6    1
     9     5     7    1
    10     5    35    1
    11     7     8    1
    12     8     9   ar
    13     8    13   ar
    14     9    10   ar
    15     9    36    1
    16    10    11   ar
    17    10    26    1
    18    11    12   ar
    19    11    14    1
    20    12    13   ar
    21    12    17    1
    22    13    37    1
    23    14    15    1
    24    14    25    2
    25    15    16    1
    26    15    38    1
    27    15    39    1
    28    16    17    1
    29    16    18    1
    30    16    40    1
    31    18    19   ar
    32    18    23   ar
    33    19    20   ar
    34    19    41    1
    35    20    21   ar
    36    20    42    1
    37    21    22   ar
    38    21    24    1
    39    22    23   ar
    40    22    43    1
    41    23    44    1
    42    24    45    1
    43    26    46    1
    44    27    47    1
    45    28    48    1
    46    29    49    1
    47    30    50    1
    48     1    31    1
    49     1    27    1
    50     2    32    1
    51     2    28    1
    52     4    34    1
    53     4    30    1
