@<TRIPOS>MOLECULE
*****
 50 53 0 0 0
SMALL
GASTEIGER

@<TRIPOS>ATOM
     1 C         -0.312653   -1.321453   1.710793 C.3        1 UNL1     0.1889
     2 C         -0.45055   -0.979506   0.202815 C.3        1 UNL1     0.1342
     3 C         -1.892595   -0.987188   -0.327194 C.3        1 UNL1     0.1174
     4 C         -2.764962   -2.052614   0.341356 C.3        1 UNL1     0.1456
     5 C         -2.609709   -2.066589   1.873043 C.3        1 UNL1     0.2326
     6 O         -1.241586   -2.266463   2.221122 O.3        1 UNL1     -0.3076
     7 O         -3.196625   -0.922301   2.51915 O.3        1 UNL1     -0.4605
     8 C         -3.711402   -1.138497   3.784769 C.ar        1 UNL1     0.1310
     9 C         -4.521633   -2.216677   4.156732 C.ar        1 UNL1     0.0226
     10 C         -4.980484   -2.35726   5.471872 C.ar        1 UNL1     0.1343
     11 C         -4.620258   -1.434948   6.453411 C.ar        1 UNL1     0.1007
     12 C         -3.845428   -0.331926   6.084948 C.ar        1 UNL1     0.1389
     13 C         -3.386369   -0.189378   4.761931 C.ar        1 UNL1     0.0229
     14 C         -5.007333   -1.580176   7.875816 C.2        1 UNL1     0.1740
     15 C         -4.350571   -0.624616   8.828244 C.3        1 UNL1     0.0520
     16 C         -4.288121   0.746246   8.168855 C.3        1 UNL1     0.1322
     17 O         -3.52266   0.692121   6.944841 O.3        1 UNL1     -0.4828
     18 C         -5.651853   1.428105   8.034583 C.ar        1 UNL1     -0.0067
     19 C         -6.021325   2.00063   6.800112 C.ar        1 UNL1     -0.0516
     20 C         -7.24087   2.672966   6.656457 C.ar        1 UNL1     -0.0198
     21 C         -8.09448   2.785742   7.739259 C.ar        1 UNL1     0.1169
     22 C         -7.773535   2.203559   8.958642 C.ar        1 UNL1     -0.0198
     23 C         -6.562338   1.515247   9.097511 C.ar        1 UNL1     -0.0516
     24 O         -9.25636   3.48031   7.571892 O.3        1 UNL1     -0.5068
     25 O         -5.751643   -2.466473   8.286868 O.2        1 UNL1     -0.2917
     26 O         -5.768313   -3.430792   5.769262 O.3        1 UNL1     -0.5058
     27 O         -0.218855   -0.17684   2.543769 O.3        1 UNL1     -0.3648
     28 O         0.289726   -1.954071   -0.55542 O.3        1 UNL1     -0.3841
     29 O         -2.465225   0.320265   -0.257956 O.3        1 UNL1     -0.3863
     30 O         -2.403337   -3.352496   -0.173644 O.3        1 UNL1     -0.3829
     31 H         0.654216   -1.822283   1.83085 H        1 UNL1     0.0937
     32 H         0.0   0.0   0.0 H        1 UNL1     0.0671
     33 H         -1.855127   -1.232987   -1.397661 H        1 UNL1     0.0649
     34 H         -3.817662   -1.888192   0.086036 H        1 UNL1     0.0683
     35 H         -3.153216   -2.966955   2.185805 H        1 UNL1     0.1085
     36 H         -4.790526   -2.997155   3.453403 H        1 UNL1     0.0691
     37 H         -2.785461   0.67895   4.50038 H        1 UNL1     0.0691
     38 H         -3.346426   -1.006699   9.040922 H        1 UNL1     0.0385
     39 H         -4.915812   -0.607492   9.766321 H        1 UNL1     0.0385
     40 H         -3.701546   1.397486   8.830924 H        1 UNL1     0.0789
     41 H         -5.364681   1.933697   5.937563 H        1 UNL1     0.0623
     42 H         -7.509094   3.120491   5.702629 H        1 UNL1     0.0654
     43 H         -8.441459   2.272898   9.808925 H        1 UNL1     0.0654
     44 H         -6.348638   1.063654   10.061483 H        1 UNL1     0.0623
     45 H         -9.035074   4.400119   7.353486 H        1 UNL1     0.2921
     46 H         -5.365092   -3.937766   6.491621 H        1 UNL1     0.2922
     47 H         0.503955   0.394103   2.248085 H        1 UNL1     0.2126
     48 H         1.228364   -1.846663   -0.308125 H        1 UNL1     0.2101
     49 H         -2.040456   0.901468   -0.908777 H        1 UNL1     0.2100
     50 H         -2.643677   -3.378209   -1.123006 H        1 UNL1     0.2102
@<TRIPOS>BOND
     1     1     2    1
     2     1     6    1
     3     2     3    1
     4     3     4    1
     5     3    29    1
     6     3    33    1
     7     4     5    1
     8     5     6    1
     9     5     7    1
    10     5    35    1
    11     7     8    1
    12     8     9   ar
    13     8    13   ar
    14     9    10   ar
    15     9    36    1
    16    10    11   ar
    17    10    26    1
    18    11    12   ar
    19    11    14    1
    20    12    13   ar
    21    12    17    1
    22    13    37    1
    23    14    15    1
    24    14    25    2
    25    15    16    1
    26    15    38    1
    27    15    39    1
    28    16    17    1
    29    16    18    1
    30    16    40    1
    31    18    19   ar
    32    18    23   ar
    33    19    20   ar
    34    19    41    1
    35    20    21   ar
    36    20    42    1
    37    21    22   ar
    38    21    24    1
    39    22    23   ar
    40    22    43    1
    41    23    44    1
    42    24    45    1
    43    26    46    1
    44    27    47    1
    45    28    48    1
    46    29    49    1
    47    30    50    1
    48     1    31    1
    49     1    27    1
    50     2    32    1
    51     2    28    1
    52     4    34    1
    53     4    30    1
