@<TRIPOS>MOLECULE
*****
 50 53 0 0 0
SMALL
GASTEIGER

@<TRIPOS>ATOM
     1 C         -1.60125   0.315672   1.451604 C.3        1 UNL1     0.1889
     2 C         -0.829897   0.699405   0.160208 C.3        1 UNL1     0.1342
     3 C         -0.285305   2.135906   0.141497 C.3        1 UNL1     0.1174
     4 C         -1.20505   3.12867   0.856762 C.3        1 UNL1     0.1456
     5 C         -1.686495   2.608085   2.223351 C.3        1 UNL1     0.2326
     6 O         -2.350573   1.356959   2.060398 O.3        1 UNL1     -0.3076
     7 O         -0.649704   2.572697   3.220913 O.3        1 UNL1     -0.4605
     8 C         0.387856   1.688552   2.985784 C.ar        1 UNL1     0.1310
     9 C         1.637217   2.027898   2.45546 C.ar        1 UNL1     0.0226
     10 C         2.631819   1.060259   2.270138 C.ar        1 UNL1     0.1343
     11 C         2.409198   -0.267316   2.633214 C.ar        1 UNL1     0.1007
     12 C         1.151497   -0.625894   3.125548 C.ar        1 UNL1     0.1389
     13 C         0.1507   0.346763   3.309325 C.ar        1 UNL1     0.0229
     14 C         3.4527   -1.314248   2.537338 C.2        1 UNL1     0.1740
     15 C         3.11413   -2.628886   3.176591 C.3        1 UNL1     0.0520
     16 C         1.654993   -2.947   2.88048 C.3        1 UNL1     0.1322
     17 O         0.788249   -1.921168   3.41292 O.3        1 UNL1     -0.4828
     18 C         1.387502   -3.306784   1.417015 C.ar        1 UNL1     -0.0067
     19 C         2.219975   -4.243639   0.77087 C.ar        1 UNL1     -0.0516
     20 C         2.032382   -4.559766   -0.579995 C.ar        1 UNL1     -0.0198
     21 C         1.022776   -3.941831   -1.296011 C.ar        1 UNL1     0.1169
     22 C         0.165643   -3.040015   -0.678849 C.ar        1 UNL1     -0.0198
     23 C         0.341403   -2.737503   0.676751 C.ar        1 UNL1     -0.0516
     24 O         0.894263   -4.246592   -2.619267 O.3        1 UNL1     -0.5068
     25 O         4.560926   -1.121114   2.044367 O.2        1 UNL1     -0.2917
     26 O         3.828235   1.456386   1.7474 O.3        1 UNL1     -0.5058
     27 O         -0.806993   -0.380717   2.398698 O.3        1 UNL1     -0.3648
     28 O         -1.722647   0.565083   -0.961246 O.3        1 UNL1     -0.3841
     29 O         1.057485   2.175491   0.628816 O.3        1 UNL1     -0.3863
     30 O         -2.357984   3.388893   0.026872 O.3        1 UNL1     -0.3829
     31 H         -2.36601   -0.410481   1.155087 H        1 UNL1     0.0937
     32 H         0.0   0.0   0.0 H        1 UNL1     0.0671
     33 H         -0.224611   2.457891   -0.907485 H        1 UNL1     0.0649
     34 H         -0.68778   4.084464   0.995652 H        1 UNL1     0.0683
     35 H         -2.448105   3.33584   2.530275 H        1 UNL1     0.1085
     36 H         1.891531   3.052141   2.205715 H        1 UNL1     0.0691
     37 H         -0.8204   0.041665   3.693216 H        1 UNL1     0.0691
     38 H         3.285543   -2.527359   4.253549 H        1 UNL1     0.0385
     39 H         3.791877   -3.399394   2.793507 H        1 UNL1     0.0385
     40 H         1.397549   -3.84834   3.453043 H        1 UNL1     0.0789
     41 H         3.025278   -4.735598   1.308563 H        1 UNL1     0.0623
     42 H         2.688414   -5.274943   -1.070052 H        1 UNL1     0.0654
     43 H         -0.637658   -2.561604   -1.226335 H        1 UNL1     0.0654
     44 H         -0.353229   -2.036444   1.129352 H        1 UNL1     0.0623
     45 H         0.332007   -5.034095   -2.699417 H        1 UNL1     0.2921
     46 H         4.13961   2.247416   2.215083 H        1 UNL1     0.2922
     47 H         -1.283984   -0.468464   3.23574 H        1 UNL1     0.2126
     48 H         -1.428903   -0.221533   -1.459926 H        1 UNL1     0.2101
     49 H         1.412357   1.274448   0.69191 H        1 UNL1     0.2100
     50 H         -2.533985   2.58541   -0.505247 H        1 UNL1     0.2102
@<TRIPOS>BOND
     1     1     2    1
     2     1     6    1
     3     2     3    1
     4     3     4    1
     5     3    29    1
     6     3    33    1
     7     4     5    1
     8     5     6    1
     9     5     7    1
    10     5    35    1
    11     7     8    1
    12     8     9   ar
    13     8    13   ar
    14     9    10   ar
    15     9    36    1
    16    10    11   ar
    17    10    26    1
    18    11    12   ar
    19    11    14    1
    20    12    13   ar
    21    12    17    1
    22    13    37    1
    23    14    15    1
    24    14    25    2
    25    15    16    1
    26    15    38    1
    27    15    39    1
    28    16    17    1
    29    16    18    1
    30    16    40    1
    31    18    19   ar
    32    18    23   ar
    33    19    20   ar
    34    19    41    1
    35    20    21   ar
    36    20    42    1
    37    21    22   ar
    38    21    24    1
    39    22    23   ar
    40    22    43    1
    41    23    44    1
    42    24    45    1
    43    26    46    1
    44    27    47    1
    45    28    48    1
    46    29    49    1
    47    30    50    1
    48     1    31    1
    49     1    27    1
    50     2    32    1
    51     2    28    1
    52     4    34    1
    53     4    30    1
