@<TRIPOS>MOLECULE
*****
 50 53 0 0 0
SMALL
GASTEIGER

@<TRIPOS>ATOM
     1 C         -0.374527   -1.604357   1.434075 C.3        1 UNL1     0.1889
     2 C         -0.377709   -1.029967   -0.008147 C.3        1 UNL1     0.1342
     3 C         -1.746275   -1.056316   -0.705855 C.3        1 UNL1     0.1174
     4 C         -2.584448   -2.278459   -0.322515 C.3        1 UNL1     0.1456
     5 C         -2.596941   -2.532876   1.195866 C.3        1 UNL1     0.2326
     6 O         -1.262498   -2.686175   1.674018 O.3        1 UNL1     -0.3076
     7 O         -3.354035   -1.556819   1.934408 O.3        1 UNL1     -0.4605
     8 C         -3.981923   -2.015618   3.07843 C.ar        1 UNL1     0.1310
     9 C         -4.969856   -3.005384   3.119107 C.ar        1 UNL1     0.0226
     10 C         -5.534573   -3.414829   4.332923 C.ar        1 UNL1     0.1343
     11 C         -5.107604   -2.860729   5.538955 C.ar        1 UNL1     0.1007
     12 C         -4.151059   -1.842486   5.507578 C.ar        1 UNL1     0.1389
     13 C         -3.585293   -1.429104   4.286737 C.ar        1 UNL1     0.0229
     14 C         -5.609671   -3.315064   6.8564 C.2        1 UNL1     0.1740
     15 C         -4.883257   -2.770418   8.051068 C.3        1 UNL1     0.0520
     16 C         -4.568461   -1.302879   7.795744 C.3        1 UNL1     0.1322
     17 O         -3.737203   -1.153117   6.623715 O.3        1 UNL1     -0.4828
     18 C         -5.80061   -0.395158   7.819759 C.ar        1 UNL1     -0.0067
     19 C         -5.959177   0.529507   8.872405 C.ar        1 UNL1     -0.0516
     20 C         -7.097173   1.341224   8.95015 C.ar        1 UNL1     -0.0198
     21 C         -8.084952   1.232849   7.987667 C.ar        1 UNL1     0.1169
     22 C         -7.941885   0.355405   6.920679 C.ar        1 UNL1     -0.0198
     23 C         -6.795415   -0.443286   6.832621 C.ar        1 UNL1     -0.0516
     24 O         -9.196476   2.012706   8.117046 O.3        1 UNL1     -0.5068
     25 O         -6.50625   -4.143939   6.98906 O.2        1 UNL1     -0.2917
     26 O         -6.494554   -4.383938   4.303768 O.3        1 UNL1     -0.5058
     27 O         -0.478365   -0.608688   2.439385 O.3        1 UNL1     -0.3648
     28 O         0.527764   -1.80935   -0.811507 O.3        1 UNL1     -0.3841
     29 O         -2.441222   0.176224   -0.50579 O.3        1 UNL1     -0.3863
     30 O         -2.050305   -3.445702   -0.984275 O.3        1 UNL1     -0.3829
     31 H         0.615485   -2.045655   1.592858 H        1 UNL1     0.0937
     32 H         0.0   0.0   0.0 H        1 UNL1     0.0671
     33 H         -1.569492   -1.119156   -1.788684 H        1 UNL1     0.0649
     34 H         -3.613581   -2.152106   -0.676521 H        1 UNL1     0.0683
     35 H         -3.085973   -3.509928   1.296345 H        1 UNL1     0.1085
     36 H         -5.304534   -3.514201   2.221769 H        1 UNL1     0.0691
     37 H         -2.843179   -0.633645   4.289213 H        1 UNL1     0.0691
     38 H         -3.965701   -3.355287   8.175758 H        1 UNL1     0.0385
     39 H         -5.502911   -2.911843   8.943147 H        1 UNL1     0.0385
     40 H         -3.937251   -0.958023   8.625905 H        1 UNL1     0.0789
     41 H         -5.20237   0.627146   9.645296 H        1 UNL1     0.0623
     42 H         -7.213388   2.04193   9.773265 H        1 UNL1     0.0654
     43 H         -8.702322   0.273261   6.153282 H        1 UNL1     0.0654
     44 H         -6.711782   -1.110077   5.979837 H        1 UNL1     0.0623
     45 H         -9.105497   2.776974   7.525156 H        1 UNL1     0.2921
     46 H         -6.386478   -4.969518   5.069815 H        1 UNL1     0.2922
     47 H         0.310885   -0.049274   2.439356 H        1 UNL1     0.2126
     48 H         0.227662   -1.721054   -1.736642 H        1 UNL1     0.2101
     49 H         -3.077641   0.082077   0.220778 H        1 UNL1     0.2100
     50 H         -2.344483   -3.423739   -1.918454 H        1 UNL1     0.2102
@<TRIPOS>BOND
     1     1     2    1
     2     1     6    1
     3     2     3    1
     4     3     4    1
     5     3    29    1
     6     3    33    1
     7     4     5    1
     8     5     6    1
     9     5     7    1
    10     5    35    1
    11     7     8    1
    12     8     9   ar
    13     8    13   ar
    14     9    10   ar
    15     9    36    1
    16    10    11   ar
    17    10    26    1
    18    11    12   ar
    19    11    14    1
    20    12    13   ar
    21    12    17    1
    22    13    37    1
    23    14    15    1
    24    14    25    2
    25    15    16    1
    26    15    38    1
    27    15    39    1
    28    16    17    1
    29    16    18    1
    30    16    40    1
    31    18    19   ar
    32    18    23   ar
    33    19    20   ar
    34    19    41    1
    35    20    21   ar
    36    20    42    1
    37    21    22   ar
    38    21    24    1
    39    22    23   ar
    40    22    43    1
    41    23    44    1
    42    24    45    1
    43    26    46    1
    44    27    47    1
    45    28    48    1
    46    29    49    1
    47    30    50    1
    48     1    31    1
    49     1    27    1
    50     2    32    1
    51     2    28    1
    52     4    34    1
    53     4    30    1
