@<TRIPOS>MOLECULE
*****
 50 53 0 0 0
SMALL
GASTEIGER

@<TRIPOS>ATOM
     1 C         -1.534602   -0.579249   1.442314 C.3        1 UNL1     0.1889
     2 C         -0.669293   0.487834   0.719462 C.3        1 UNL1     0.1342
     3 C         0.163354   1.378665   1.654119 C.3        1 UNL1     0.1174
     4 C         -0.545931   1.676792   2.97743 C.3        1 UNL1     0.1456
     5 C         -1.158167   0.416675   3.615894 C.3        1 UNL1     0.2326
     6 O         -2.064579   -0.199021   2.703641 O.3        1 UNL1     -0.3076
     7 O         -0.175908   -0.495412   4.139902 O.3        1 UNL1     -0.4605
     8 C         0.324655   -1.425866   3.24703 C.ar        1 UNL1     0.1310
     9 C         1.673887   -1.583614   2.912384 C.ar        1 UNL1     0.0226
     10 C         2.084561   -2.56943   2.007168 C.ar        1 UNL1     0.1343
     11 C         1.157673   -3.437846   1.432212 C.ar        1 UNL1     0.1007
     12 C         -0.197103   -3.263537   1.727137 C.ar        1 UNL1     0.1389
     13 C         -0.610064   -2.270519   2.635327 C.ar        1 UNL1     0.0229
     14 C         1.5456   -4.550557   0.534692 C.2        1 UNL1     0.1740
     15 C         0.451274   -5.517   0.188299 C.3        1 UNL1     0.0520
     16 C         -0.830041   -4.729423   -0.048156 C.3        1 UNL1     0.1322
     17 O         -1.203886   -3.990883   1.135849 O.3        1 UNL1     -0.4828
     18 C         -0.815143   -3.900298   -1.334646 C.ar        1 UNL1     -0.0067
     19 C         0.38335   -3.781059   -2.067864 C.ar        1 UNL1     -0.0516
     20 C         0.44342   -2.991993   -3.222735 C.ar        1 UNL1     -0.0198
     21 C         -0.683634   -2.312808   -3.649684 C.ar        1 UNL1     0.1169
     22 C         -1.88708   -2.437142   -2.967704 C.ar        1 UNL1     -0.0198
     23 C         -1.952174   -3.240864   -1.823216 C.ar        1 UNL1     -0.0516
     24 O         -0.577315   -1.523812   -4.757196 O.3        1 UNL1     -0.5068
     25 O         2.696709   -4.739123   0.150147 O.2        1 UNL1     -0.2917
     26 O         3.415115   -2.670265   1.722486 O.3        1 UNL1     -0.5058
     27 O         -0.926183   -1.859836   1.494365 O.3        1 UNL1     -0.3648
     28 O         -1.543156   1.352254   -0.030103 O.3        1 UNL1     -0.3841
     29 O         1.472713   0.836503   1.837885 O.3        1 UNL1     -0.3863
     30 O         -1.598862   2.637433   2.74463 O.3        1 UNL1     -0.3829
     31 H         -2.426688   -0.729461   0.824498 H        1 UNL1     0.0937
     32 H         0.0   0.0   0.0 H        1 UNL1     0.0671
     33 H         0.315138   2.343564   1.15048 H        1 UNL1     0.0649
     34 H         0.155901   2.135135   3.682948 H        1 UNL1     0.0683
     35 H         -1.758313   0.80648   4.447613 H        1 UNL1     0.1085
     36 H         2.448992   -0.976894   3.367604 H        1 UNL1     0.0691
     37 H         -1.670786   -2.154544   2.847249 H        1 UNL1     0.0691
     38 H         0.340472   -6.207764   1.03097 H        1 UNL1     0.0385
     39 H         0.749534   -6.096475   -0.692057 H        1 UNL1     0.0385
     40 H         -1.638996   -5.460172   -0.182755 H        1 UNL1     0.0789
     41 H         1.284183   -4.296868   -1.748344 H        1 UNL1     0.0623
     42 H         1.376554   -2.898532   -3.772771 H        1 UNL1     0.0654
     43 H         -2.779562   -1.921645   -3.301841 H        1 UNL1     0.0654
     44 H         -2.911305   -3.3236   -1.321153 H        1 UNL1     0.0623
     45 H         -1.353251   -1.678879   -5.319863 H        1 UNL1     0.2921
     46 H         3.696615   -3.594185   1.814902 H        1 UNL1     0.2922
     47 H         -0.314709   -1.909848   2.242335 H        1 UNL1     0.2126
     48 H         -1.723354   0.90123   -0.877357 H        1 UNL1     0.2101
     49 H         1.421525   -0.129117   1.920048 H        1 UNL1     0.2100
     50 H         -1.322987   3.212979   2.001427 H        1 UNL1     0.2102
@<TRIPOS>BOND
     1     1     2    1
     2     1     6    1
     3     2     3    1
     4     3     4    1
     5     3    29    1
     6     3    33    1
     7     4     5    1
     8     5     6    1
     9     5     7    1
    10     5    35    1
    11     7     8    1
    12     8     9   ar
    13     8    13   ar
    14     9    10   ar
    15     9    36    1
    16    10    11   ar
    17    10    26    1
    18    11    12   ar
    19    11    14    1
    20    12    13   ar
    21    12    17    1
    22    13    37    1
    23    14    15    1
    24    14    25    2
    25    15    16    1
    26    15    38    1
    27    15    39    1
    28    16    17    1
    29    16    18    1
    30    16    40    1
    31    18    19   ar
    32    18    23   ar
    33    19    20   ar
    34    19    41    1
    35    20    21   ar
    36    20    42    1
    37    21    22   ar
    38    21    24    1
    39    22    23   ar
    40    22    43    1
    41    23    44    1
    42    24    45    1
    43    26    46    1
    44    27    47    1
    45    28    48    1
    46    29    49    1
    47    30    50    1
    48     1    31    1
    49     1    27    1
    50     2    32    1
    51     2    28    1
    52     4    34    1
    53     4    30    1
