@<TRIPOS>MOLECULE
*****
 50 53 0 0 0
SMALL
GASTEIGER

@<TRIPOS>ATOM
     1 C         0.917362   -0.02895   1.982023 C.3        1 UNL1     0.1889
     2 C         -0.32278   -0.006386   1.048491 C.3        1 UNL1     0.1342
     3 C         -1.281893   1.170375   1.284712 C.3        1 UNL1     0.1174
     4 C         -1.374097   1.574291   2.758302 C.3        1 UNL1     0.1456
     5 C         0.008092   1.686551   3.427118 C.3        1 UNL1     0.2326
     6 O         0.710349   0.452033   3.301945 O.3        1 UNL1     -0.3076
     7 O         0.772111   2.820289   2.977412 O.3        1 UNL1     -0.4605
     8 C         1.621487   3.387501   3.910342 C.ar        1 UNL1     0.1310
     9 C         1.289977   3.675315   5.238711 C.ar        1 UNL1     0.0226
     10 C         2.228168   4.235859   6.113634 C.ar        1 UNL1     0.1343
     11 C         3.529034   4.50041   5.687488 C.ar        1 UNL1     0.1007
     12 C         3.859993   4.255414   4.352113 C.ar        1 UNL1     0.1389
     13 C         2.915695   3.694245   3.471874 C.ar        1 UNL1     0.0229
     14 C         4.583901   5.013982   6.591731 C.2        1 UNL1     0.1740
     15 C         5.973567   5.028555   6.025902 C.3        1 UNL1     0.0520
     16 C         5.897811   5.479851   4.573817 C.3        1 UNL1     0.1322
     17 O         5.077322   4.578126   3.798729 O.3        1 UNL1     -0.4828
     18 C         5.546349   6.960083   4.406154 C.ar        1 UNL1     -0.0067
     19 C         5.15434   7.439629   3.139434 C.ar        1 UNL1     -0.0516
     20 C         4.871917   8.79638   2.940876 C.ar        1 UNL1     -0.0198
     21 C         4.984675   9.682921   3.996887 C.ar        1 UNL1     0.1169
     22 C         5.336042   9.235376   5.263806 C.ar        1 UNL1     -0.0198
     23 C         5.600617   7.875665   5.46689 C.ar        1 UNL1     -0.0516
     24 O         4.738363   11.002815   3.756863 O.3        1 UNL1     -0.5068
     25 O         4.376044   5.336945   7.75834 O.2        1 UNL1     -0.2917
     26 O         1.841051   4.493563   7.396332 O.3        1 UNL1     -0.5058
     27 O         2.077825   0.537285   1.394239 O.3        1 UNL1     -0.3648
     28 O         -1.072073   -1.218062   1.256109 O.3        1 UNL1     -0.3841
     29 O         -0.957889   2.268194   0.429173 O.3        1 UNL1     -0.3863
     30 O         -2.156026   0.591222   3.470939 O.3        1 UNL1     -0.3829
     31 H         1.177419   -1.082595   2.13129 H        1 UNL1     0.0937
     32 H         0.0   0.0   0.0 H        1 UNL1     0.0671
     33 H         -2.287743   0.849641   0.979565 H        1 UNL1     0.0649
     34 H         -1.899813   2.531009   2.851652 H        1 UNL1     0.0683
     35 H         -0.222987   1.815505   4.491943 H        1 UNL1     0.1085
     36 H         0.31248   3.441361   5.646003 H        1 UNL1     0.0691
     37 H         3.197944   3.514121   2.436797 H        1 UNL1     0.0691
     38 H         6.373282   4.011802   6.103153 H        1 UNL1     0.0385
     39 H         6.601312   5.689898   6.632813 H        1 UNL1     0.0385
     40 H         6.904282   5.370094   4.147801 H        1 UNL1     0.0789
     41 H         5.0673   6.76546   2.292339 H        1 UNL1     0.0623
     42 H         4.582139   9.155874   1.956598 H        1 UNL1     0.0654
     43 H         5.412714   9.918597   6.101207 H        1 UNL1     0.0654
     44 H         5.862122   7.559262   6.472051 H        1 UNL1     0.0623
     45 H         5.416964   11.335543   3.147348 H        1 UNL1     0.2921
     46 H         2.446738   4.051492   8.012066 H        1 UNL1     0.2922
     47 H         2.269351   0.106669   0.549403 H        1 UNL1     0.2126
     48 H         -0.514581   -1.950893   0.930695 H        1 UNL1     0.2101
     49 H         -1.174614   2.045303   -0.490144 H        1 UNL1     0.2100
     50 H         -3.079206   0.648632   3.148207 H        1 UNL1     0.2102
@<TRIPOS>BOND
     1     1     2    1
     2     1     6    1
     3     2     3    1
     4     3     4    1
     5     3    29    1
     6     3    33    1
     7     4     5    1
     8     5     6    1
     9     5     7    1
    10     5    35    1
    11     7     8    1
    12     8     9   ar
    13     8    13   ar
    14     9    10   ar
    15     9    36    1
    16    10    11   ar
    17    10    26    1
    18    11    12   ar
    19    11    14    1
    20    12    13   ar
    21    12    17    1
    22    13    37    1
    23    14    15    1
    24    14    25    2
    25    15    16    1
    26    15    38    1
    27    15    39    1
    28    16    17    1
    29    16    18    1
    30    16    40    1
    31    18    19   ar
    32    18    23   ar
    33    19    20   ar
    34    19    41    1
    35    20    21   ar
    36    20    42    1
    37    21    22   ar
    38    21    24    1
    39    22    23   ar
    40    22    43    1
    41    23    44    1
    42    24    45    1
    43    26    46    1
    44    27    47    1
    45    28    48    1
    46    29    49    1
    47    30    50    1
    48     1    31    1
    49     1    27    1
    50     2    32    1
    51     2    28    1
    52     4    34    1
    53     4    30    1
