@<TRIPOS>MOLECULE
*****
 50 53 0 0 0
SMALL
GASTEIGER

@<TRIPOS>ATOM
     1 C         -0.326543   -1.36676   1.672167 C.3        1 UNL1     0.1889
     2 C         -0.462154   -0.979467   0.174985 C.3        1 UNL1     0.1342
     3 C         -1.904844   -0.954289   -0.352722 C.3        1 UNL1     0.1174
     4 C         -2.789248   -2.028073   0.285976 C.3        1 UNL1     0.1456
     5 C         -2.632271   -2.088455   1.816361 C.3        1 UNL1     0.2326
     6 O         -1.266243   -2.314902   2.1563 O.3        1 UNL1     -0.3076
     7 O         -3.20445   -0.956421   2.496383 O.3        1 UNL1     -0.4605
     8 C         -3.720239   -1.203083   3.756005 C.ar        1 UNL1     0.1310
     9 C         -4.543035   -2.281741   4.097771 C.ar        1 UNL1     0.0226
     10 C         -5.001922   -2.454944   5.409002 C.ar        1 UNL1     0.1343
     11 C         -4.629307   -1.565988   6.416352 C.ar        1 UNL1     0.1007
     12 C         -3.841604   -0.462172   6.078862 C.ar        1 UNL1     0.1389
     13 C         -3.382494   -0.286779   4.759815 C.ar        1 UNL1     0.0229
     14 C         -5.016347   -1.74782   7.834552 C.2        1 UNL1     0.1740
     15 C         -4.34685   -0.828373   8.813297 C.3        1 UNL1     0.0520
     16 C         -4.268585   0.560227   8.193924 C.3        1 UNL1     0.1322
     17 O         -3.50536   0.532458   6.967634 O.3        1 UNL1     -0.4828
     18 C         -5.624105   1.262149   8.0817 C.ar        1 UNL1     -0.0067
     19 C         -5.698366   2.531396   7.472018 C.ar        1 UNL1     -0.0516
     20 C         -6.914043   3.221492   7.395464 C.ar        1 UNL1     -0.0198
     21 C         -8.058564   2.657596   7.930177 C.ar        1 UNL1     0.1169
     22 C         -8.02375   1.394704   8.507005 C.ar        1 UNL1     -0.0198
     23 C         -6.811797   0.69642   8.567222 C.ar        1 UNL1     -0.0516
     24 O         -9.216724   3.375606   7.870785 O.3        1 UNL1     -0.5068
     25 O         -5.770849   -2.636625   8.220862 O.2        1 UNL1     -0.2917
     26 O         -5.802354   -3.52706   5.676327 O.3        1 UNL1     -0.5058
     27 O         -0.217822   -0.248069   2.537902 O.3        1 UNL1     -0.3648
     28 O         0.265294   -1.940457   -0.612432 O.3        1 UNL1     -0.3841
     29 O         -2.461475   0.35743   -0.244605 O.3        1 UNL1     -0.3863
     30 O         -2.444069   -3.316709   -0.267158 O.3        1 UNL1     -0.3829
     31 H         0.634324   -1.882528   1.776076 H        1 UNL1     0.0937
     32 H         0.0   0.0   0.0 H        1 UNL1     0.0671
     33 H         -1.871694   -1.169293   -1.429938 H        1 UNL1     0.0649
     34 H         -3.840191   -1.843572   0.037222 H        1 UNL1     0.0683
     35 H         -3.186278   -2.990894   2.103693 H        1 UNL1     0.1085
     36 H         -4.822257   -3.038129   3.37249 H        1 UNL1     0.0691
     37 H         -2.771415   0.581454   4.522649 H        1 UNL1     0.0691
     38 H         -3.347153   -1.228598   9.013179 H        1 UNL1     0.0385
     39 H         -4.910674   -0.831696   9.752376 H        1 UNL1     0.0385
     40 H         -3.673324   1.184797   8.873701 H        1 UNL1     0.0789
     41 H         -4.812422   2.999505   7.052939 H        1 UNL1     0.0623
     42 H         -6.956083   4.204753   6.933466 H        1 UNL1     0.0654
     43 H         -8.917027   0.937321   8.915377 H        1 UNL1     0.0654
     44 H         -6.82332   -0.292454   9.015375 H        1 UNL1     0.0623
     45 H         -9.09828   4.191663   8.383366 H        1 UNL1     0.2921
     46 H         -5.404419   -4.059664   6.383003 H        1 UNL1     0.2922
     47 H         0.511497   0.322444   2.257781 H        1 UNL1     0.2126
     48 H         1.210277   -1.820581   -0.397095 H        1 UNL1     0.2101
     49 H         -2.030732   0.952047   -0.87918 H        1 UNL1     0.2100
     50 H         -2.706622   -3.319821   -1.210963 H        1 UNL1     0.2102
@<TRIPOS>BOND
     1     1     2    1
     2     1     6    1
     3     2     3    1
     4     3     4    1
     5     3    29    1
     6     3    33    1
     7     4     5    1
     8     5     6    1
     9     5     7    1
    10     5    35    1
    11     7     8    1
    12     8     9   ar
    13     8    13   ar
    14     9    10   ar
    15     9    36    1
    16    10    11   ar
    17    10    26    1
    18    11    12   ar
    19    11    14    1
    20    12    13   ar
    21    12    17    1
    22    13    37    1
    23    14    15    1
    24    14    25    2
    25    15    16    1
    26    15    38    1
    27    15    39    1
    28    16    17    1
    29    16    18    1
    30    16    40    1
    31    18    19   ar
    32    18    23   ar
    33    19    20   ar
    34    19    41    1
    35    20    21   ar
    36    20    42    1
    37    21    22   ar
    38    21    24    1
    39    22    23   ar
    40    22    43    1
    41    23    44    1
    42    24    45    1
    43    26    46    1
    44    27    47    1
    45    28    48    1
    46    29    49    1
    47    30    50    1
    48     1    31    1
    49     1    27    1
    50     2    32    1
    51     2    28    1
    52     4    34    1
    53     4    30    1
