@<TRIPOS>MOLECULE
*****
 50 53 0 0 0
SMALL
GASTEIGER

@<TRIPOS>ATOM
     1 C         -0.382903   -1.350525   1.673401 C.3        1 UNL1     0.1889
     2 C         -0.489124   -0.966644   0.17297 C.3        1 UNL1     0.1342
     3 C         -1.923715   -0.907278   -0.373736 C.3        1 UNL1     0.1174
     4 C         -2.843351   -1.955424   0.257751 C.3        1 UNL1     0.1456
     5 C         -2.707901   -2.012895   1.790303 C.3        1 UNL1     0.2326
     6 O         -1.352609   -2.272363   2.14909 O.3        1 UNL1     -0.3076
     7 O         -3.259947   -0.863682   2.458041 O.3        1 UNL1     -0.4605
     8 C         -3.78757   -1.089286   3.716709 C.ar        1 UNL1     0.1310
     9 C         -4.63457   -2.147731   4.062522 C.ar        1 UNL1     0.0226
     10 C         -5.104047   -2.300662   5.372524 C.ar        1 UNL1     0.1343
     11 C         -4.718367   -1.411518   6.374779 C.ar        1 UNL1     0.1007
     12 C         -3.905948   -0.327156   6.032846 C.ar        1 UNL1     0.1389
     13 C         -3.436161   -0.172103   4.715011 C.ar        1 UNL1     0.0229
     14 C         -5.116771   -1.573707   7.792214 C.2        1 UNL1     0.1740
     15 C         -4.433487   -0.660507   8.767272 C.3        1 UNL1     0.0520
     16 C         -4.322865   0.72108   8.137241 C.3        1 UNL1     0.1322
     17 O         -3.553782   0.667431   6.915479 O.3        1 UNL1     -0.4828
     18 C         -5.662788   1.450196   8.011858 C.ar        1 UNL1     -0.0067
     19 C         -6.015152   2.04513   6.782994 C.ar        1 UNL1     -0.0516
     20 C         -7.211319   2.759882   6.647798 C.ar        1 UNL1     -0.0198
     21 C         -8.05823   2.892844   7.733565 C.ar        1 UNL1     0.1169
     22 C         -7.754727   2.290039   8.947382 C.ar        1 UNL1     -0.0198
     23 C         -6.56746   1.559645   9.077683 C.ar        1 UNL1     -0.0516
     24 O         -9.196056   3.62804   7.574698 O.3        1 UNL1     -0.5068
     25 O         -5.891765   -2.443409   8.181428 O.2        1 UNL1     -0.2917
     26 O         -5.928151   -3.353637   5.64397 O.3        1 UNL1     -0.5058
     27 O         -0.257084   -0.231074   2.535832 O.3        1 UNL1     -0.3648
     28 O         0.223871   -1.949287   -0.600824 O.3        1 UNL1     -0.3841
     29 O         -2.448207   0.418599   -0.278392 O.3        1 UNL1     -0.3863
     30 O         -2.523844   -3.254865   -0.28544 O.3        1 UNL1     -0.3829
     31 H         0.563118   -1.890009   1.792063 H        1 UNL1     0.0937
     32 H         0.0   0.0   0.0 H        1 UNL1     0.0671
     33 H         -1.882012   -1.127886   -1.449521 H        1 UNL1     0.0649
     34 H         -3.88594   -1.745465   -0.005547 H        1 UNL1     0.0683
     35 H         -3.288347   -2.899704   2.074084 H        1 UNL1     0.1085
     36 H         -4.925629   -2.903996   3.34178 H        1 UNL1     0.0691
     37 H         -2.805792   0.681236   4.474301 H        1 UNL1     0.0691
     38 H         -3.44347   -1.079865   8.975913 H        1 UNL1     0.0385
     39 H         -5.002316   -0.644435   9.703196 H        1 UNL1     0.0385
     40 H         -3.718353   1.338597   8.815295 H        1 UNL1     0.0789
     41 H         -5.363048   1.9629   5.918326 H        1 UNL1     0.0623
     42 H         -7.466158   3.22413   5.698302 H        1 UNL1     0.0654
     43 H         -8.418048   2.37516   9.799831 H        1 UNL1     0.0654
     44 H         -6.367229   1.093112   10.037422 H        1 UNL1     0.0623
     45 H         -8.944506   4.533973   7.332365 H        1 UNL1     0.2921
     46 H         -5.54394   -3.890174   6.355253 H        1 UNL1     0.2922
     47 H         0.502644   0.308333   2.275615 H        1 UNL1     0.2126
     48 H         1.155144   -1.913138   -0.309008 H        1 UNL1     0.2101
     49 H         -1.988134   1.00123   -0.903427 H        1 UNL1     0.2100
     50 H         -2.747796   -3.246371   -1.23911 H        1 UNL1     0.2102
@<TRIPOS>BOND
     1     1     2    1
     2     1     6    1
     3     2     3    1
     4     3     4    1
     5     3    29    1
     6     3    33    1
     7     4     5    1
     8     5     6    1
     9     5     7    1
    10     5    35    1
    11     7     8    1
    12     8     9   ar
    13     8    13   ar
    14     9    10   ar
    15     9    36    1
    16    10    11   ar
    17    10    26    1
    18    11    12   ar
    19    11    14    1
    20    12    13   ar
    21    12    17    1
    22    13    37    1
    23    14    15    1
    24    14    25    2
    25    15    16    1
    26    15    38    1
    27    15    39    1
    28    16    17    1
    29    16    18    1
    30    16    40    1
    31    18    19   ar
    32    18    23   ar
    33    19    20   ar
    34    19    41    1
    35    20    21   ar
    36    20    42    1
    37    21    22   ar
    38    21    24    1
    39    22    23   ar
    40    22    43    1
    41    23    44    1
    42    24    45    1
    43    26    46    1
    44    27    47    1
    45    28    48    1
    46    29    49    1
    47    30    50    1
    48     1    31    1
    49     1    27    1
    50     2    32    1
    51     2    28    1
    52     4    34    1
    53     4    30    1
