@<TRIPOS>MOLECULE
*****
 50 53 0 0 0
SMALL
GASTEIGER

@<TRIPOS>ATOM
     1 C         -0.350972   -1.33795   1.690418 C.3        1 UNL1     0.1889
     2 C         -0.471738   -0.972764   0.186425 C.3        1 UNL1     0.1342
     3 C         -1.910045   -0.943761   -0.352925 C.3        1 UNL1     0.1174
     4 C         -2.808384   -2.000138   0.295282 C.3        1 UNL1     0.1456
     5 C         -2.663751   -2.038128   1.827601 C.3        1 UNL1     0.2326
     6 O         -1.30235   -2.270638   2.181711 O.3        1 UNL1     -0.3076
     7 O         -3.231596   -0.890985   2.485578 O.3        1 UNL1     -0.4605
     8 C         -3.755773   -1.113035   3.746316 C.ar        1 UNL1     0.1310
     9 C         -4.587894   -2.180135   4.101523 C.ar        1 UNL1     0.0226
     10 C         -5.05493   -2.32827   5.412948 C.ar        1 UNL1     0.1343
     11 C         -4.681454   -1.425229   6.407369 C.ar        1 UNL1     0.1007
     12 C         -3.884271   -0.332662   6.055829 C.ar        1 UNL1     0.1389
     13 C         -3.416955   -0.182469   4.736553 C.ar        1 UNL1     0.0229
     14 C         -5.077273   -1.580703   7.82628 C.2        1 UNL1     0.1740
     15 C         -4.406562   -0.649704   8.793201 C.3        1 UNL1     0.0520
     16 C         -4.315302   0.727798   8.151238 C.3        1 UNL1     0.1322
     17 O         -3.545796   0.67431   6.929735 O.3        1 UNL1     -0.4828
     18 C         -5.665265   1.437095   8.020002 C.ar        1 UNL1     -0.0067
     19 C         -6.024923   2.018872   6.786959 C.ar        1 UNL1     -0.0516
     20 C         -7.230933   2.715769   6.646118 C.ar        1 UNL1     -0.0198
     21 C         -8.080572   2.843936   7.730329 C.ar        1 UNL1     0.1169
     22 C         -7.769647   2.2535   8.94834 C.ar        1 UNL1     -0.0198
     23 C         -6.572311   1.540805   9.084383 C.ar        1 UNL1     -0.0516
     24 O         -9.228516   3.561941   7.565727 O.3        1 UNL1     -0.5068
     25 O         -5.840013   -2.45771   8.223234 O.2        1 UNL1     -0.2917
     26 O         -5.864248   -3.390224   5.693736 O.3        1 UNL1     -0.5058
     27 O         -0.239509   -0.206936   2.539635 O.3        1 UNL1     -0.3648
     28 O         0.253638   -1.951843   -0.580347 O.3        1 UNL1     -0.3841
     29 O         -2.456408   0.374058   -0.269415 O.3        1 UNL1     -0.3863
     30 O         -2.469826   -3.300008   -0.235196 O.3        1 UNL1     -0.3829
     31 H         0.604678   -1.860021   1.809809 H        1 UNL1     0.0937
     32 H         0.0   0.0   0.0 H        1 UNL1     0.0671
     33 H         -1.870387   -1.175681   -1.426405 H        1 UNL1     0.0649
     34 H         -3.85578   -1.810777   0.035465 H        1 UNL1     0.0683
     35 H         -3.227555   -2.931373   2.124448 H        1 UNL1     0.1085
     36 H         -4.868549   -2.946568   3.387427 H        1 UNL1     0.0691
     37 H         -2.798569   0.677447   4.488286 H        1 UNL1     0.0691
     38 H         -3.410763   -1.053433   9.005132 H        1 UNL1     0.0385
     39 H         -4.975369   -0.633469   9.729136 H        1 UNL1     0.0385
     40 H         -3.719301   1.359495   8.823742 H        1 UNL1     0.0789
     41 H         -5.370978   1.940143   5.923358 H        1 UNL1     0.0623
     42 H         -7.491474   3.170097   5.693376 H        1 UNL1     0.0654
     43 H         -8.434838   2.334881   9.799696 H        1 UNL1     0.0654
     44 H         -6.366349   1.083489   10.047341 H        1 UNL1     0.0623
     45 H         -8.989126   4.47747   7.34843 H        1 UNL1     0.2921
     46 H         -5.473802   -3.913702   6.411325 H        1 UNL1     0.2922
     47 H         0.503569   0.347385   2.26319 H        1 UNL1     0.2126
     48 H         1.189199   -1.88252   -0.308956 H        1 UNL1     0.2101
     49 H         -2.015535   0.955263   -0.909435 H        1 UNL1     0.2100
     50 H         -2.704249   -3.30788   -1.186351 H        1 UNL1     0.2102
@<TRIPOS>BOND
     1     1     2    1
     2     1     6    1
     3     2     3    1
     4     3     4    1
     5     3    29    1
     6     3    33    1
     7     4     5    1
     8     5     6    1
     9     5     7    1
    10     5    35    1
    11     7     8    1
    12     8     9   ar
    13     8    13   ar
    14     9    10   ar
    15     9    36    1
    16    10    11   ar
    17    10    26    1
    18    11    12   ar
    19    11    14    1
    20    12    13   ar
    21    12    17    1
    22    13    37    1
    23    14    15    1
    24    14    25    2
    25    15    16    1
    26    15    38    1
    27    15    39    1
    28    16    17    1
    29    16    18    1
    30    16    40    1
    31    18    19   ar
    32    18    23   ar
    33    19    20   ar
    34    19    41    1
    35    20    21   ar
    36    20    42    1
    37    21    22   ar
    38    21    24    1
    39    22    23   ar
    40    22    43    1
    41    23    44    1
    42    24    45    1
    43    26    46    1
    44    27    47    1
    45    28    48    1
    46    29    49    1
    47    30    50    1
    48     1    31    1
    49     1    27    1
    50     2    32    1
    51     2    28    1
    52     4    34    1
    53     4    30    1
