@<TRIPOS>MOLECULE
*****
 50 53 0 0 0
SMALL
GASTEIGER

@<TRIPOS>ATOM
     1 C         0.461019   -1.548422   1.469917 C.3        1 UNL1     0.1889
     2 C         -0.535777   -0.610359   0.737541 C.3        1 UNL1     0.1342
     3 C         -1.343214   0.314207   1.661494 C.3        1 UNL1     0.1174
     4 C         -1.687359   -0.339748   3.002025 C.3        1 UNL1     0.1456
     5 C         -0.47756   -1.043898   3.643058 C.3        1 UNL1     0.2326
     6 O         0.049703   -2.018036   2.745329 O.3        1 UNL1     -0.3076
     7 O         0.519928   -0.132382   4.138516 O.3        1 UNL1     -0.4605
     8 C         0.045191   0.974057   4.81965 C.ar        1 UNL1     0.1310
     9 C         0.560858   1.467732   6.022843 C.ar        1 UNL1     0.0226
     10 C         0.020355   2.608629   6.627917 C.ar        1 UNL1     0.1343
     11 C         -1.034607   3.298027   6.031573 C.ar        1 UNL1     0.1007
     12 C         -1.584713   2.791132   4.851223 C.ar        1 UNL1     0.1389
     13 C         -1.042779   1.642435   4.244401 C.ar        1 UNL1     0.0229
     14 C         -1.588955   4.555853   6.583592 C.2        1 UNL1     0.1740
     15 C         -2.563189   5.278682   5.700452 C.3        1 UNL1     0.0520
     16 C         -3.466562   4.24911   5.035731 C.3        1 UNL1     0.1322
     17 O         -2.692452   3.327438   4.236767 O.3        1 UNL1     -0.4828
     18 C         -4.452183   3.581581   5.997855 C.ar        1 UNL1     -0.0067
     19 C         -3.99733   2.560029   6.856781 C.ar        1 UNL1     -0.0516
     20 C         -4.882034   1.896326   7.715127 C.ar        1 UNL1     -0.0198
     21 C         -6.222303   2.239098   7.718678 C.ar        1 UNL1     0.1169
     22 C         -6.694148   3.263712   6.908514 C.ar        1 UNL1     -0.0198
     23 C         -5.806263   3.940136   6.06343 C.ar        1 UNL1     -0.0516
     24 O         -7.060858   1.545024   8.540559 O.3        1 UNL1     -0.5068
     25 O         -1.231752   5.039476   7.654572 O.2        1 UNL1     -0.2917
     26 O         0.568335   3.037815   7.801417 O.3        1 UNL1     -0.5058
     27 O         1.789158   -1.050409   1.498495 O.3        1 UNL1     -0.3648
     28 O         -1.478806   -1.422592   0.013883 O.3        1 UNL1     -0.3841
     29 O         -0.689873   1.576098   1.812853 O.3        1 UNL1     -0.3863
     30 O         -2.736327   -1.311542   2.799604 O.3        1 UNL1     -0.3829
     31 H         0.528662   -2.46257   0.870053 H        1 UNL1     0.0937
     32 H         0.0   0.0   0.0 H        1 UNL1     0.0671
     33 H         -2.296687   0.537288   1.162651 H        1 UNL1     0.0649
     34 H         -2.077304   0.412939   3.696147 H        1 UNL1     0.0683
     35 H         -0.908669   -1.591423   4.490549 H        1 UNL1     0.1085
     36 H         1.416141   1.009567   6.507297 H        1 UNL1     0.0691
     37 H         -1.489884   1.267364   3.326298 H        1 UNL1     0.0691
     38 H         -1.984813   5.835977   4.955851 H        1 UNL1     0.0385
     39 H         -3.128426   5.997976   6.302865 H        1 UNL1     0.0385
     40 H         -4.089601   4.786792   4.308241 H        1 UNL1     0.0789
     41 H         -2.95175   2.266222   6.866251 H        1 UNL1     0.0623
     42 H         -4.52131   1.10217   8.364132 H        1 UNL1     0.0654
     43 H         -7.73898   3.550425   6.914294 H        1 UNL1     0.0654
     44 H         -6.207359   4.74253   5.451768 H        1 UNL1     0.0623
     45 H         -6.974931   0.599242   8.338497 H        1 UNL1     0.2921
     46 H         1.350434   3.580544   7.613858 H        1 UNL1     0.2922
     47 H         1.916913   -0.481606   2.270506 H        1 UNL1     0.2126
     48 H         -2.359501   -1.027129   0.161254 H        1 UNL1     0.2101
     49 H         -0.174904   1.584539   2.635367 H        1 UNL1     0.2100
     50 H         -3.570733   -0.930607   3.143649 H        1 UNL1     0.2102
@<TRIPOS>BOND
     1     1     2    1
     2     1     6    1
     3     2     3    1
     4     3     4    1
     5     3    29    1
     6     3    33    1
     7     4     5    1
     8     5     6    1
     9     5     7    1
    10     5    35    1
    11     7     8    1
    12     8     9   ar
    13     8    13   ar
    14     9    10   ar
    15     9    36    1
    16    10    11   ar
    17    10    26    1
    18    11    12   ar
    19    11    14    1
    20    12    13   ar
    21    12    17    1
    22    13    37    1
    23    14    15    1
    24    14    25    2
    25    15    16    1
    26    15    38    1
    27    15    39    1
    28    16    17    1
    29    16    18    1
    30    16    40    1
    31    18    19   ar
    32    18    23   ar
    33    19    20   ar
    34    19    41    1
    35    20    21   ar
    36    20    42    1
    37    21    22   ar
    38    21    24    1
    39    22    23   ar
    40    22    43    1
    41    23    44    1
    42    24    45    1
    43    26    46    1
    44    27    47    1
    45    28    48    1
    46    29    49    1
    47    30    50    1
    48     1    31    1
    49     1    27    1
    50     2    32    1
    51     2    28    1
    52     4    34    1
    53     4    30    1
