@<TRIPOS>MOLECULE
*****
 50 53 0 0 0
SMALL
GASTEIGER

@<TRIPOS>ATOM
     1 C         0.423079   -0.291845   -2.122884 C.3        1 UNL1     0.1889
     2 C         0.177332   -0.83475   -0.689426 C.3        1 UNL1     0.1342
     3 C         1.309231   -1.712212   -0.133252 C.3        1 UNL1     0.1174
     4 C         1.987044   -2.560771   -1.211971 C.3        1 UNL1     0.1456
     5 C         2.322465   -1.749608   -2.476831 C.3        1 UNL1     0.2326
     6 O         1.138296   -1.150937   -2.998566 O.3        1 UNL1     -0.3076
     7 O         3.395487   -0.809431   -2.287063 O.3        1 UNL1     -0.4605
     8 C         3.617414   0.075192   -3.32712 C.ar        1 UNL1     0.1310
     9 C         4.757511   0.103586   -4.137474 C.ar        1 UNL1     0.0226
     10 C         4.881681   1.029872   -5.179816 C.ar        1 UNL1     0.1343
     11 C         3.857352   1.935554   -5.452452 C.ar        1 UNL1     0.1007
     12 C         2.731791   1.943968   -4.624306 C.ar        1 UNL1     0.1389
     13 C         2.608333   1.014238   -3.574644 C.ar        1 UNL1     0.0229
     14 C         3.899624   2.879706   -6.593041 C.2        1 UNL1     0.1740
     15 C         2.624672   3.620899   -6.869955 C.3        1 UNL1     0.0520
     16 C         2.004028   4.025581   -5.539921 C.3        1 UNL1     0.1322
     17 O         1.713287   2.861987   -4.73457 O.3        1 UNL1     -0.4828
     18 C         2.776777   5.126086   -4.808845 C.ar        1 UNL1     -0.0067
     19 C         2.128496   6.339739   -4.500638 C.ar        1 UNL1     -0.0516
     20 C         2.819346   7.38447   -3.875157 C.ar        1 UNL1     -0.0198
     21 C         4.157638   7.231013   -3.560115 C.ar        1 UNL1     0.1169
     22 C         4.814723   6.035532   -3.820698 C.ar        1 UNL1     -0.0198
     23 C         4.119258   4.983961   -4.429453 C.ar        1 UNL1     -0.0516
     24 O         4.807391   8.283859   -2.985889 O.3        1 UNL1     -0.5068
     25 O         4.874376   3.007394   -7.329274 O.2        1 UNL1     -0.2917
     26 O         6.019439   1.005808   -5.932487 O.3        1 UNL1     -0.5058
     27 O         0.94098   1.02877   -2.146188 O.3        1 UNL1     -0.3648
     28 O         -1.018403   -1.636441   -0.704089 O.3        1 UNL1     -0.3841
     29 O         2.237461   -0.926778   0.617492 O.3        1 UNL1     -0.3863
     30 O         1.111747   -3.649755   -1.577565 O.3        1 UNL1     -0.3829
     31 H         -0.560549   -0.20415   -2.597081 H        1 UNL1     0.0937
     32 H         0.0   0.0   0.0 H        1 UNL1     0.0671
     33 H         0.866918   -2.411565   0.589925 H        1 UNL1     0.0649
     34 H         2.905289   -3.007166   -0.814532 H        1 UNL1     0.0683
     35 H         2.641653   -2.509269   -3.201339 H        1 UNL1     0.1085
     36 H         5.564047   -0.610508   -4.012214 H        1 UNL1     0.0691
     37 H         1.722607   1.042256   -2.943615 H        1 UNL1     0.0691
     38 H         1.963755   2.946971   -7.425415 H        1 UNL1     0.0385
     39 H         2.843171   4.486064   -7.505193 H        1 UNL1     0.0385
     40 H         1.019454   4.45954   -5.760858 H        1 UNL1     0.0789
     41 H         1.08093   6.488338   -4.745944 H        1 UNL1     0.0623
     42 H         2.311471   8.319842   -3.653449 H        1 UNL1     0.0654
     43 H         5.858617   5.899257   -3.564525 H        1 UNL1     0.0654
     44 H         4.661144   4.060353   -4.608769 H        1 UNL1     0.0623
     45 H         4.795697   9.028297   -3.6091 H        1 UNL1     0.2921
     46 H         6.381603   1.903398   -6.00018 H        1 UNL1     0.2922
     47 H         0.832515   1.415464   -3.02628 H        1 UNL1     0.2126
     48 H         -0.735024   -2.563535   -0.58608 H        1 UNL1     0.2101
     49 H         3.003667   -0.703928   0.06517 H        1 UNL1     0.2100
     50 H         0.793674   -3.487675   -2.489855 H        1 UNL1     0.2102
@<TRIPOS>BOND
     1     1     2    1
     2     1     6    1
     3     2     3    1
     4     3     4    1
     5     3    29    1
     6     3    33    1
     7     4     5    1
     8     5     6    1
     9     5     7    1
    10     5    35    1
    11     7     8    1
    12     8     9   ar
    13     8    13   ar
    14     9    10   ar
    15     9    36    1
    16    10    11   ar
    17    10    26    1
    18    11    12   ar
    19    11    14    1
    20    12    13   ar
    21    12    17    1
    22    13    37    1
    23    14    15    1
    24    14    25    2
    25    15    16    1
    26    15    38    1
    27    15    39    1
    28    16    17    1
    29    16    18    1
    30    16    40    1
    31    18    19   ar
    32    18    23   ar
    33    19    20   ar
    34    19    41    1
    35    20    21   ar
    36    20    42    1
    37    21    22   ar
    38    21    24    1
    39    22    23   ar
    40    22    43    1
    41    23    44    1
    42    24    45    1
    43    26    46    1
    44    27    47    1
    45    28    48    1
    46    29    49    1
    47    30    50    1
    48     1    31    1
    49     1    27    1
    50     2    32    1
    51     2    28    1
    52     4    34    1
    53     4    30    1
