@<TRIPOS>MOLECULE
*****
 50 53 0 0 0
SMALL
GASTEIGER

@<TRIPOS>ATOM
     1 C         0.662297   -1.988361   0.615294 C.3        1 UNL1     0.1889
     2 C         -0.254426   -1.046198   -0.210471 C.3        1 UNL1     0.1342
     3 C         -1.75942   -1.25202   0.019953 C.3        1 UNL1     0.1174
     4 C         -2.12631   -2.716461   0.272782 C.3        1 UNL1     0.1456
     5 C         -1.189895   -3.392197   1.291051 C.3        1 UNL1     0.2326
     6 O         0.161465   -3.296831   0.846527 O.3        1 UNL1     -0.3076
     7 O         -1.376366   -2.924775   2.639408 O.3        1 UNL1     -0.4605
     8 C         -1.14507   -3.851737   3.639794 C.ar        1 UNL1     0.1310
     9 C         -1.614481   -5.169649   3.647659 C.ar        1 UNL1     0.0226
     10 C         -1.311339   -6.039615   4.701778 C.ar        1 UNL1     0.1343
     11 C         -0.510774   -5.619449   5.763096 C.ar        1 UNL1     0.1007
     12 C         -0.070217   -4.2935   5.786624 C.ar        1 UNL1     0.1389
     13 C         -0.377361   -3.418177   4.727897 C.ar        1 UNL1     0.0229
     14 C         -0.090151   -6.520946   6.860608 C.2        1 UNL1     0.1740
     15 C         0.946678   -5.967976   7.793752 C.3        1 UNL1     0.0520
     16 C         0.622255   -4.504829   8.061909 C.3        1 UNL1     0.1322
     17 O         0.632291   -3.743959   6.833884 O.3        1 UNL1     -0.4828
     18 C         -0.624192   -4.298393   8.925898 C.ar        1 UNL1     -0.0067
     19 C         -1.599674   -3.363711   8.522141 C.ar        1 UNL1     -0.0516
     20 C         -2.728147   -3.11623   9.312878 C.ar        1 UNL1     -0.0198
     21 C         -2.888653   -3.790044   10.510392 C.ar        1 UNL1     0.1169
     22 C         -1.96216   -4.740728   10.918618 C.ar        1 UNL1     -0.0198
     23 C         -0.842935   -5.001818   10.119103 C.ar        1 UNL1     -0.0516
     24 O         -3.981018   -3.495265   11.27213 O.3        1 UNL1     -0.5068
     25 O         -0.487356   -7.677466   6.97539 O.2        1 UNL1     -0.2917
     26 O         -1.80094   -7.312073   4.649554 O.3        1 UNL1     -0.5058
     27 O         1.153092   -1.39708   1.807893 O.3        1 UNL1     -0.3648
     28 O         -0.000219   -1.273267   -1.609229 O.3        1 UNL1     -0.3841
     29 O         -2.240282   -0.37661   1.041991 O.3        1 UNL1     -0.3863
     30 O         -2.05914   -3.443577   -0.973204 O.3        1 UNL1     -0.3829
     31 H         1.559461   -2.160715   0.010753 H        1 UNL1     0.0937
     32 H         0.0   0.0   0.0 H        1 UNL1     0.0671
     33 H         -2.283802   -0.946643   -0.896283 H        1 UNL1     0.0649
     34 H         -3.15979   -2.786837   0.629668 H        1 UNL1     0.0683
     35 H         -1.467517   -4.452601   1.242607 H        1 UNL1     0.1085
     36 H         -2.194553   -5.573263   2.825022 H        1 UNL1     0.0691
     37 H         -0.023283   -2.390413   4.770594 H        1 UNL1     0.0691
     38 H         1.921453   -6.073356   7.305658 H        1 UNL1     0.0385
     39 H         0.957757   -6.564691   8.712222 H        1 UNL1     0.0385
     40 H         1.453933   -4.091021   8.648078 H        1 UNL1     0.0789
     41 H         -1.492194   -2.815171   7.590903 H        1 UNL1     0.0623
     42 H         -3.467301   -2.384424   8.996459 H        1 UNL1     0.0654
     43 H         -2.08573   -5.285055   11.847246 H        1 UNL1     0.0654
     44 H         -0.144754   -5.758573   10.463646 H        1 UNL1     0.0623
     45 H         -3.928475   -2.56223   11.535572 H        1 UNL1     0.2921
     46 H         -1.06706   -7.943837   4.710434 H        1 UNL1     0.2922
     47 H         1.599793   -0.562463   1.608562 H        1 UNL1     0.2126
     48 H         0.925765   -1.008917   -1.77173 H        1 UNL1     0.2101
     49 H         -2.23382   0.539483   0.721796 H        1 UNL1     0.2100
     50 H         -2.761372   -3.097822   -1.562301 H        1 UNL1     0.2102
@<TRIPOS>BOND
     1     1     2    1
     2     1     6    1
     3     2     3    1
     4     3     4    1
     5     3    29    1
     6     3    33    1
     7     4     5    1
     8     5     6    1
     9     5     7    1
    10     5    35    1
    11     7     8    1
    12     8     9   ar
    13     8    13   ar
    14     9    10   ar
    15     9    36    1
    16    10    11   ar
    17    10    26    1
    18    11    12   ar
    19    11    14    1
    20    12    13   ar
    21    12    17    1
    22    13    37    1
    23    14    15    1
    24    14    25    2
    25    15    16    1
    26    15    38    1
    27    15    39    1
    28    16    17    1
    29    16    18    1
    30    16    40    1
    31    18    19   ar
    32    18    23   ar
    33    19    20   ar
    34    19    41    1
    35    20    21   ar
    36    20    42    1
    37    21    22   ar
    38    21    24    1
    39    22    23   ar
    40    22    43    1
    41    23    44    1
    42    24    45    1
    43    26    46    1
    44    27    47    1
    45    28    48    1
    46    29    49    1
    47    30    50    1
    48     1    31    1
    49     1    27    1
    50     2    32    1
    51     2    28    1
    52     4    34    1
    53     4    30    1
