@<TRIPOS>MOLECULE
*****
 50 53 0 0 0
SMALL
GASTEIGER

@<TRIPOS>ATOM
     1 C         -0.327537   -1.327507   1.703306 C.3        1 UNL1     0.1889
     2 C         -0.45804   -0.977304   0.196565 C.3        1 UNL1     0.1342
     3 C         -1.898337   -0.972339   -0.338211 C.3        1 UNL1     0.1174
     4 C         -2.780326   -2.034868   0.322277 C.3        1 UNL1     0.1456
     5 C         -2.630259   -2.057346   1.85438 C.3        1 UNL1     0.2326
     6 O         -1.264726   -2.268461   2.205975 O.3        1 UNL1     -0.3076
     7 O         -3.211323   -0.912126   2.504116 O.3        1 UNL1     -0.4605
     8 C         -3.721625   -1.128288   3.771552 C.ar        1 UNL1     0.1310
     9 C         -4.533415   -2.204583   4.145566 C.ar        1 UNL1     0.0226
     10 C         -4.987377   -2.345346   5.462383 C.ar        1 UNL1     0.1343
     11 C         -4.620593   -1.425166   6.443493 C.ar        1 UNL1     0.1007
     12 C         -3.84412   -0.323931   6.073149 C.ar        1 UNL1     0.1389
     13 C         -3.389975   -0.181195   4.748457 C.ar        1 UNL1     0.0229
     14 C         -5.002363   -1.570897   7.86728 C.2        1 UNL1     0.1740
     15 C         -4.33907   -0.618277   8.818125 C.3        1 UNL1     0.0520
     16 C         -4.275376   0.753144   8.160019 C.3        1 UNL1     0.1322
     17 O         -3.514993   0.698227   6.932879 O.3        1 UNL1     -0.4828
     18 C         -5.637693   1.439019   8.03199 C.ar        1 UNL1     -0.0067
     19 C         -5.968509   2.103633   6.833215 C.ar        1 UNL1     -0.0516
     20 C         -7.186353   2.781188   6.70003 C.ar        1 UNL1     -0.0198
     21 C         -8.07672   2.80766   7.758508 C.ar        1 UNL1     0.1169
     22 C         -7.793836   2.134424   8.93985 C.ar        1 UNL1     -0.0198
     23 C         -6.584082   1.441282   9.066755 C.ar        1 UNL1     -0.0516
     24 O         -9.236258   3.509387   7.605371 O.3        1 UNL1     -0.5068
     25 O         -5.747531   -2.455542   8.280332 O.2        1 UNL1     -0.2917
     26 O         -5.777051   -3.416973   5.76174 O.3        1 UNL1     -0.5058
     27 O         -0.228525   -0.187625   2.542146 O.3        1 UNL1     -0.3648
     28 O         0.277935   -1.953335   -0.563969 O.3        1 UNL1     -0.3841
     29 O         -2.462062   0.338734   -0.264492 O.3        1 UNL1     -0.3863
     30 O         -2.426067   -3.334735   -0.197853 O.3        1 UNL1     -0.3829
     31 H         0.635412   -1.835657   1.8241 H        1 UNL1     0.0937
     32 H         0.0   0.0   0.0 H        1 UNL1     0.0671
     33 H         -1.85903   -1.213206   -1.409732 H        1 UNL1     0.0649
     34 H         -3.831001   -1.861857   0.064302 H        1 UNL1     0.0683
     35 H         -3.181067   -2.955396   2.160968 H        1 UNL1     0.1085
     36 H         -4.807346   -2.983503   3.442454 H        1 UNL1     0.0691
     37 H         -2.787658   0.68572   4.485461 H        1 UNL1     0.0691
     38 H         -3.335168   -1.003445   9.026339 H        1 UNL1     0.0385
     39 H         -4.900487   -0.600607   9.758485 H        1 UNL1     0.0385
     40 H         -3.684298   1.401972   8.82045 H        1 UNL1     0.0789
     41 H         -5.282704   2.105308   5.991005 H        1 UNL1     0.0623
     42 H         -7.424749   3.299907   5.774768 H        1 UNL1     0.0654
     43 H         -8.490514   2.136057   9.769638 H        1 UNL1     0.0654
     44 H         -6.400497   0.917556   9.99995 H        1 UNL1     0.0623
     45 H         -9.012173   4.438672   7.435281 H        1 UNL1     0.2921
     46 H         -5.371678   -3.926677   6.480966 H        1 UNL1     0.2922
     47 H         0.512127   0.369233   2.264291 H        1 UNL1     0.2126
     48 H         1.210227   -1.882702   -0.28188 H        1 UNL1     0.2101
     49 H         -2.025262   0.922274   -0.90518 H        1 UNL1     0.2100
     50 H         -2.658217   -3.352219   -1.149438 H        1 UNL1     0.2102
@<TRIPOS>BOND
     1     1     2    1
     2     1     6    1
     3     2     3    1
     4     3     4    1
     5     3    29    1
     6     3    33    1
     7     4     5    1
     8     5     6    1
     9     5     7    1
    10     5    35    1
    11     7     8    1
    12     8     9   ar
    13     8    13   ar
    14     9    10   ar
    15     9    36    1
    16    10    11   ar
    17    10    26    1
    18    11    12   ar
    19    11    14    1
    20    12    13   ar
    21    12    17    1
    22    13    37    1
    23    14    15    1
    24    14    25    2
    25    15    16    1
    26    15    38    1
    27    15    39    1
    28    16    17    1
    29    16    18    1
    30    16    40    1
    31    18    19   ar
    32    18    23   ar
    33    19    20   ar
    34    19    41    1
    35    20    21   ar
    36    20    42    1
    37    21    22   ar
    38    21    24    1
    39    22    23   ar
    40    22    43    1
    41    23    44    1
    42    24    45    1
    43    26    46    1
    44    27    47    1
    45    28    48    1
    46    29    49    1
    47    30    50    1
    48     1    31    1
    49     1    27    1
    50     2    32    1
    51     2    28    1
    52     4    34    1
    53     4    30    1
