@<TRIPOS>MOLECULE
*****
 50 53 0 0 0
SMALL
GASTEIGER

@<TRIPOS>ATOM
     1 C         -0.3452   -1.342677   1.687857 C.3        1 UNL1     0.1889
     2 C         -0.470379   -0.973664   0.185159 C.3        1 UNL1     0.1342
     3 C         -1.910173   -0.944516   -0.350199 C.3        1 UNL1     0.1174
     4 C         -2.805821   -2.003377   0.29768 C.3        1 UNL1     0.1456
     5 C         -2.656985   -2.045248   1.829495 C.3        1 UNL1     0.2326
     6 O         -1.294422   -2.277484   2.179292 O.3        1 UNL1     -0.3076
     7 O         -3.224039   -0.90033   2.492016 O.3        1 UNL1     -0.4605
     8 C         -3.744587   -1.126139   3.75359 C.ar        1 UNL1     0.1310
     9 C         -4.574806   -2.194898   4.108262 C.ar        1 UNL1     0.0226
     10 C         -5.038141   -2.346874   5.42056 C.ar        1 UNL1     0.1343
     11 C         -4.662749   -1.446109   6.416323 C.ar        1 UNL1     0.1007
     12 C         -3.86748   -0.351925   6.065479 C.ar        1 UNL1     0.1389
     13 C         -3.403889   -0.197869   4.745335 C.ar        1 UNL1     0.0229
     14 C         -5.054568   -1.605644   7.835894 C.2        1 UNL1     0.1740
     15 C         -4.382042   -0.676587   8.803422 C.3        1 UNL1     0.0520
     16 C         -4.293733   0.702669   8.164822 C.3        1 UNL1     0.1322
     17 O         -3.527508   0.653055   6.941094 O.3        1 UNL1     -0.4828
     18 C         -5.644667   1.411118   8.039116 C.ar        1 UNL1     -0.0067
     19 C         -6.008188   1.995802   6.808583 C.ar        1 UNL1     -0.0516
     20 C         -7.215186   2.692003   6.672848 C.ar        1 UNL1     -0.0198
     21 C         -8.061982   2.816583   7.759698 C.ar        1 UNL1     0.1169
     22 C         -7.747227   2.223237   8.975308 C.ar        1 UNL1     -0.0198
     23 C         -6.548902   1.511244   9.106228 C.ar        1 UNL1     -0.0516
     24 O         -9.210997   3.534006   7.600099 O.3        1 UNL1     -0.5068
     25 O         -5.815458   -2.484358   8.232623 O.2        1 UNL1     -0.2917
     26 O         -5.845764   -3.410272   5.700767 O.3        1 UNL1     -0.5058
     27 O         -0.232415   -0.21379   2.539726 O.3        1 UNL1     -0.3648
     28 O         0.253763   -1.950094   -0.586144 O.3        1 UNL1     -0.3841
     29 O         -2.457458   0.372598   -0.261752 O.3        1 UNL1     -0.3863
     30 O         -2.467572   -3.301556   -0.237118 O.3        1 UNL1     -0.3829
     31 H         0.611227   -1.864216   1.803282 H        1 UNL1     0.0937
     32 H         0.0   0.0   0.0 H        1 UNL1     0.0671
     33 H         -1.873235   -1.173593   -1.424387 H        1 UNL1     0.0649
     34 H         -3.854086   -1.814259   0.041209 H        1 UNL1     0.0683
     35 H         -3.219198   -2.939762   2.125534 H        1 UNL1     0.1085
     36 H         -4.856734   -2.959708   3.392928 H        1 UNL1     0.0691
     37 H         -2.786932   0.663237   4.497639 H        1 UNL1     0.0691
     38 H         -3.385317   -1.079992   9.011585 H        1 UNL1     0.0385
     39 H         -4.948312   -0.663302   9.74094 H        1 UNL1     0.0385
     40 H         -3.696456   1.333129   8.837355 H        1 UNL1     0.0789
     41 H         -5.356528   1.919909   5.943003 H        1 UNL1     0.0623
     42 H         -7.478716   3.148592   5.722011 H        1 UNL1     0.0654
     43 H         -8.410169   2.301805   9.82868 H        1 UNL1     0.0654
     44 H         -6.339921   1.051592   10.067421 H        1 UNL1     0.0623
     45 H         -8.9733   4.444943   7.362589 H        1 UNL1     0.2921
     46 H         -5.452908   -3.935282   6.415919 H        1 UNL1     0.2922
     47 H         0.509424   0.341907   2.262714 H        1 UNL1     0.2126
     48 H         1.189998   -1.880657   -0.317118 H        1 UNL1     0.2101
     49 H         -2.018837   0.955863   -0.901445 H        1 UNL1     0.2100
     50 H         -2.704577   -3.307146   -1.187649 H        1 UNL1     0.2102
@<TRIPOS>BOND
     1     1     2    1
     2     1     6    1
     3     2     3    1
     4     3     4    1
     5     3    29    1
     6     3    33    1
     7     4     5    1
     8     5     6    1
     9     5     7    1
    10     5    35    1
    11     7     8    1
    12     8     9   ar
    13     8    13   ar
    14     9    10   ar
    15     9    36    1
    16    10    11   ar
    17    10    26    1
    18    11    12   ar
    19    11    14    1
    20    12    13   ar
    21    12    17    1
    22    13    37    1
    23    14    15    1
    24    14    25    2
    25    15    16    1
    26    15    38    1
    27    15    39    1
    28    16    17    1
    29    16    18    1
    30    16    40    1
    31    18    19   ar
    32    18    23   ar
    33    19    20   ar
    34    19    41    1
    35    20    21   ar
    36    20    42    1
    37    21    22   ar
    38    21    24    1
    39    22    23   ar
    40    22    43    1
    41    23    44    1
    42    24    45    1
    43    26    46    1
    44    27    47    1
    45    28    48    1
    46    29    49    1
    47    30    50    1
    48     1    31    1
    49     1    27    1
    50     2    32    1
    51     2    28    1
    52     4    34    1
    53     4    30    1
