@<TRIPOS>MOLECULE
*****
 50 53 0 0 0
SMALL
GASTEIGER

@<TRIPOS>ATOM
     1 C         -0.366762   -1.367584   1.663131 C.3        1 UNL1     0.1889
     2 C         -0.447352   -0.988891   0.159789 C.3        1 UNL1     0.1342
     3 C         -1.86659   -0.997845   -0.428556 C.3        1 UNL1     0.1174
     4 C         -2.75327   -2.088757   0.177108 C.3        1 UNL1     0.1456
     5 C         -2.659983   -2.140024   1.713022 C.3        1 UNL1     0.2326
     6 O         -1.304908   -2.334684   2.111454 O.3        1 UNL1     -0.3076
     7 O         -3.285389   -1.018563   2.363031 O.3        1 UNL1     -0.4605
     8 C         -3.838559   -1.269426   3.60585 C.ar        1 UNL1     0.1310
     9 C         -4.644182   -2.367018   3.927665 C.ar        1 UNL1     0.0226
     10 C         -5.144259   -2.542549   5.223433 C.ar        1 UNL1     0.1343
     11 C         -4.830913   -1.636465   6.235692 C.ar        1 UNL1     0.1007
     12 C         -4.061162   -0.514628   5.916709 C.ar        1 UNL1     0.1389
     13 C         -3.560645   -0.33696   4.613119 C.ar        1 UNL1     0.0229
     14 C         -5.262753   -1.817908   7.640949 C.2        1 UNL1     0.1740
     15 C         -4.652609   -0.873656   8.63476 C.3        1 UNL1     0.0520
     16 C         -4.58918   0.511857   8.006835 C.3        1 UNL1     0.1322
     17 O         -3.782759   0.495232   6.808303 O.3        1 UNL1     -0.4828
     18 C         -5.957926   1.176581   7.841301 C.ar        1 UNL1     -0.0067
     19 C         -6.398677   1.542833   6.552965 C.ar        1 UNL1     -0.0516
     20 C         -7.624042   2.195132   6.371439 C.ar        1 UNL1     -0.0198
     21 C         -8.412645   2.492689   7.468431 C.ar        1 UNL1     0.1169
     22 C         -8.021229   2.11494   8.746295 C.ar        1 UNL1     -0.0198
     23 C         -6.804491   1.446184   8.926214 C.ar        1 UNL1     -0.0516
     24 O         -9.581816   3.162435   7.256577 O.3        1 UNL1     -0.5068
     25 O         -6.00672   -2.723567   8.008071 O.2        1 UNL1     -0.2917
     26 O         -5.925089   -3.633562   5.471583 O.3        1 UNL1     -0.5058
     27 O         -0.319621   -0.243587   2.527536 O.3        1 UNL1     -0.3648
     28 O         0.333908   -1.936279   -0.591738 O.3        1 UNL1     -0.3841
     29 O         -2.456209   0.301511   -0.350104 O.3        1 UNL1     -0.3863
     30 O         -2.356514   -3.371383   -0.355006 O.3        1 UNL1     -0.3829
     31 H         0.600023   -1.861396   1.809945 H        1 UNL1     0.0937
     32 H         0.0   0.0   0.0 H        1 UNL1     0.0671
     33 H         -1.78307   -1.215994   -1.502407 H        1 UNL1     0.0649
     34 H         -3.796556   -1.928667   -0.116706 H        1 UNL1     0.0683
     35 H         -3.20555   -3.053545   1.980819 H        1 UNL1     0.1085
     36 H         -4.877655   -3.135983   3.199446 H        1 UNL1     0.0691
     37 H         -2.964676   0.545433   4.390195 H        1 UNL1     0.0691
     38 H         -3.650378   -1.245614   8.872893 H        1 UNL1     0.0385
     39 H         -5.248884   -0.884953   9.553513 H        1 UNL1     0.0385
     40 H         -4.034899   1.157129   8.701757 H        1 UNL1     0.0789
     41 H         -5.79376   1.328636   5.676697 H        1 UNL1     0.0623
     42 H         -7.947366   2.48303   5.374149 H        1 UNL1     0.0654
     43 H         -8.638123   2.329618   9.61074 H        1 UNL1     0.0654
     44 H         -6.535005   1.156501   9.937306 H        1 UNL1     0.0623
     45 H         -9.374415   4.022684   6.856985 H        1 UNL1     0.2921
     46 H         -5.538405   -4.150074   6.196222 H        1 UNL1     0.2922
     47 H         0.419049   0.332961   2.287081 H        1 UNL1     0.2126
     48 H         1.256571   -1.84338   -0.285479 H        1 UNL1     0.2101
     49 H         -2.006555   0.905468   -0.962346 H        1 UNL1     0.2100
     50 H         -2.557932   -3.37544   -1.313717 H        1 UNL1     0.2102
@<TRIPOS>BOND
     1     1     2    1
     2     1     6    1
     3     2     3    1
     4     3     4    1
     5     3    29    1
     6     3    33    1
     7     4     5    1
     8     5     6    1
     9     5     7    1
    10     5    35    1
    11     7     8    1
    12     8     9   ar
    13     8    13   ar
    14     9    10   ar
    15     9    36    1
    16    10    11   ar
    17    10    26    1
    18    11    12   ar
    19    11    14    1
    20    12    13   ar
    21    12    17    1
    22    13    37    1
    23    14    15    1
    24    14    25    2
    25    15    16    1
    26    15    38    1
    27    15    39    1
    28    16    17    1
    29    16    18    1
    30    16    40    1
    31    18    19   ar
    32    18    23   ar
    33    19    20   ar
    34    19    41    1
    35    20    21   ar
    36    20    42    1
    37    21    22   ar
    38    21    24    1
    39    22    23   ar
    40    22    43    1
    41    23    44    1
    42    24    45    1
    43    26    46    1
    44    27    47    1
    45    28    48    1
    46    29    49    1
    47    30    50    1
    48     1    31    1
    49     1    27    1
    50     2    32    1
    51     2    28    1
    52     4    34    1
    53     4    30    1
