@<TRIPOS>MOLECULE
*****
 50 53 0 0 0
SMALL
GASTEIGER

@<TRIPOS>ATOM
     1 C         -0.374491   -1.604343   1.4341 C.3        1 UNL1     0.1889
     2 C         -0.377691   -1.029974   -0.008131 C.3        1 UNL1     0.1342
     3 C         -1.74626   -1.056357   -0.705831 C.3        1 UNL1     0.1174
     4 C         -2.58441   -2.27851   -0.322469 C.3        1 UNL1     0.1456
     5 C         -2.59689   -2.532904   1.195916 C.3        1 UNL1     0.2326
     6 O         -1.262442   -2.686173   1.674063 O.3        1 UNL1     -0.3076
     7 O         -3.353997   -1.556851   1.934448 O.3        1 UNL1     -0.4605
     8 C         -3.981871   -2.015644   3.07848 C.ar        1 UNL1     0.1310
     9 C         -4.722028   -3.198706   3.177641 C.ar        1 UNL1     0.0226
     10 C         -5.307189   -3.58696   4.388735 C.ar        1 UNL1     0.1343
     11 C         -5.146206   -2.812781   5.537026 C.ar        1 UNL1     0.1007
     12 C         -4.443819   -1.608554   5.44073 C.ar        1 UNL1     0.1389
     13 C         -3.857772   -1.217065   4.222241 C.ar        1 UNL1     0.0229
     14 C         -5.671698   -3.217668   6.861443 C.2        1 UNL1     0.1740
     15 C         -5.21728   -2.383425   8.022947 C.3        1 UNL1     0.0520
     16 C         -5.213179   -0.92249   7.594448 C.3        1 UNL1     0.1322
     17 O         -4.316187   -0.717279   6.480733 O.3        1 UNL1     -0.4828
     18 C         -6.612433   -0.333814   7.398816 C.ar        1 UNL1     -0.0067
     19 C         -7.085208   0.642457   8.299701 C.ar        1 UNL1     -0.0516
     20 C         -8.377515   1.166841   8.177536 C.ar        1 UNL1     -0.0198
     21 C         -9.207488   0.718834   7.165478 C.ar        1 UNL1     0.1169
     22 C         -8.758759   -0.217167   6.242774 C.ar        1 UNL1     -0.0198
     23 C         -7.460052   -0.728175   6.353629 C.ar        1 UNL1     -0.0516
     24 O         -10.472539   1.224652   7.100708 O.3        1 UNL1     -0.5068
     25 O         -6.369146   -4.213361   7.036505 O.2        1 UNL1     -0.2917
     26 O         -6.017427   -4.751552   4.418266 O.3        1 UNL1     -0.5058
     27 O         -0.478341   -0.608662   2.439396 O.3        1 UNL1     -0.3648
     28 O         0.527792   -1.809352   -0.811484 O.3        1 UNL1     -0.3841
     29 O         -2.441228   0.176174   -0.50578 O.3        1 UNL1     -0.3863
     30 O         -2.050249   -3.445752   -0.984215 O.3        1 UNL1     -0.3829
     31 H         0.615529   -2.045622   1.592885 H        1 UNL1     0.0937
     32 H         0.0   0.0   0.0 H        1 UNL1     0.0671
     33 H         -1.569482   -1.119209   -1.78866 H        1 UNL1     0.0649
     34 H         -3.613547   -2.15218   -0.676471 H        1 UNL1     0.0683
     35 H         -3.085904   -3.509964   1.296412 H        1 UNL1     0.1085
     36 H         -4.836684   -3.871898   2.335152 H        1 UNL1     0.0691
     37 H         -3.316929   -0.274417   4.173269 H        1 UNL1     0.0691
     38 H         -4.210877   -2.717469   8.296978 H        1 UNL1     0.0385
     39 H         -5.88124   -2.563024   8.875402 H        1 UNL1     0.0385
     40 H         -4.767404   -0.345457   8.415933 H        1 UNL1     0.0789
     41 H         -6.456359   1.003887   9.108137 H        1 UNL1     0.0623
     42 H         -8.734672   1.910511   8.885636 H        1 UNL1     0.0654
     43 H         -9.395175   -0.563866   5.437365 H        1 UNL1     0.0654
     44 H         -7.138878   -1.450203   5.609071 H        1 UNL1     0.0623
     45 H         -10.492088   1.915438   6.41869 H        1 UNL1     0.2921
     46 H         -5.854944   -5.208354   5.258708 H        1 UNL1     0.2922
     47 H         -1.407385   -0.39612   2.605421 H        1 UNL1     0.2126
     48 H         0.087058   -1.951842   -1.671241 H        1 UNL1     0.2101
     49 H         -3.077641   0.082026   0.220793 H        1 UNL1     0.2100
     50 H         -2.344432   -3.423808   -1.918392 H        1 UNL1     0.2102
@<TRIPOS>BOND
     1     1     2    1
     2     1     6    1
     3     2     3    1
     4     3     4    1
     5     3    29    1
     6     3    33    1
     7     4     5    1
     8     5     6    1
     9     5     7    1
    10     5    35    1
    11     7     8    1
    12     8     9   ar
    13     8    13   ar
    14     9    10   ar
    15     9    36    1
    16    10    11   ar
    17    10    26    1
    18    11    12   ar
    19    11    14    1
    20    12    13   ar
    21    12    17    1
    22    13    37    1
    23    14    15    1
    24    14    25    2
    25    15    16    1
    26    15    38    1
    27    15    39    1
    28    16    17    1
    29    16    18    1
    30    16    40    1
    31    18    19   ar
    32    18    23   ar
    33    19    20   ar
    34    19    41    1
    35    20    21   ar
    36    20    42    1
    37    21    22   ar
    38    21    24    1
    39    22    23   ar
    40    22    43    1
    41    23    44    1
    42    24    45    1
    43    26    46    1
    44    27    47    1
    45    28    48    1
    46    29    49    1
    47    30    50    1
    48     1    31    1
    49     1    27    1
    50     2    32    1
    51     2    28    1
    52     4    34    1
    53     4    30    1
