@<TRIPOS>MOLECULE
*****
 50 53 0 0 0
SMALL
GASTEIGER

@<TRIPOS>ATOM
     1 C         -0.315009   -1.373938   1.668492 C.3        1 UNL1     0.1889
     2 C         -0.458997   -0.981212   0.17351 C.3        1 UNL1     0.1342
     3 C         -1.904361   -0.957385   -0.346895 C.3        1 UNL1     0.1174
     4 C         -2.783065   -2.035685   0.292061 C.3        1 UNL1     0.1456
     5 C         -2.618304   -2.101581   1.8214 C.3        1 UNL1     0.2326
     6 O         -1.250073   -2.326133   2.153647 O.3        1 UNL1     -0.3076
     7 O         -3.189707   -0.973513   2.508627 O.3        1 UNL1     -0.4605
     8 C         -3.698623   -1.226222   3.769845 C.ar        1 UNL1     0.1310
     9 C         -4.508667   -2.313783   4.113853 C.ar        1 UNL1     0.0226
     10 C         -4.9613   -2.492449   5.426523 C.ar        1 UNL1     0.1343
     11 C         -4.594878   -1.599976   6.433036 C.ar        1 UNL1     0.1007
     12 C         -3.82018   -0.487638   6.093432 C.ar        1 UNL1     0.1389
     13 C         -3.367374   -0.306775   4.772945 C.ar        1 UNL1     0.0229
     14 C         -4.975219   -1.786546   7.852432 C.2        1 UNL1     0.1740
     15 C         -4.312357   -0.86039   8.829365 C.3        1 UNL1     0.0520
     16 C         -4.251043   0.529231   8.210372 C.3        1 UNL1     0.1322
     17 O         -3.491655   0.510164   6.981537 O.3        1 UNL1     -0.4828
     18 C         -5.614375   1.216631   8.102982 C.ar        1 UNL1     -0.0067
     19 C         -5.75037   2.362303   7.292331 C.ar        1 UNL1     -0.0516
     20 C         -6.971113   3.04262   7.209165 C.ar        1 UNL1     -0.0198
     21 C         -8.058879   2.592599   7.935851 C.ar        1 UNL1     0.1169
     22 C         -7.965219   1.447962   8.716794 C.ar        1 UNL1     -0.0198
     23 C         -6.749651   0.756802   8.785696 C.ar        1 UNL1     -0.0516
     24 O         -9.2209   3.302717   7.859421 O.3        1 UNL1     -0.5068
     25 O         -5.71886   -2.683551   8.240843 O.2        1 UNL1     -0.2917
     26 O         -5.749299   -3.573196   5.696018 O.3        1 UNL1     -0.5058
     27 O         -0.204563   -0.258332   2.537982 O.3        1 UNL1     -0.3648
     28 O         0.266738   -1.937462   -0.621224 O.3        1 UNL1     -0.3841
     29 O         -2.46349   0.352601   -0.230947 O.3        1 UNL1     -0.3863
     30 O         -2.437662   -3.321374   -0.267751 O.3        1 UNL1     -0.3829
     31 H         0.647561   -1.88785   1.765619 H        1 UNL1     0.0937
     32 H         0.0   0.0   0.0 H        1 UNL1     0.0671
     33 H         -1.876093   -1.168169   -1.425084 H        1 UNL1     0.0649
     34 H         -3.835664   -1.852692   0.049264 H        1 UNL1     0.0683
     35 H         -3.168771   -3.006413   2.10801 H        1 UNL1     0.1085
     36 H         -4.782181   -3.072813   3.389157 H        1 UNL1     0.0691
     37 H         -2.76643   0.568058   4.534145 H        1 UNL1     0.0691
     38 H         -3.307767   -1.24996   9.025736 H        1 UNL1     0.0385
     39 H         -4.87298   -0.870153   9.770314 H        1 UNL1     0.0385
     40 H         -3.660249   1.159859   8.888451 H        1 UNL1     0.0789
     41 H         -4.908981   2.740894   6.719283 H        1 UNL1     0.0623
     42 H         -7.060093   3.931754   6.589863 H        1 UNL1     0.0654
     43 H         -8.814946   1.07817   9.278158 H        1 UNL1     0.0654
     44 H         -6.715256   -0.139641   9.397295 H        1 UNL1     0.0623
     45 H         -9.071433   4.178525   8.251004 H        1 UNL1     0.2921
     46 H         -5.354648   -4.08976   6.416313 H        1 UNL1     0.2922
     47 H         0.52202   0.31496   2.256428 H        1 UNL1     0.2126
     48 H         1.212504   -1.816201   -0.410142 H        1 UNL1     0.2101
     49 H         -2.037305   0.95066   -0.865365 H        1 UNL1     0.2100
     50 H         -2.704918   -3.321473   -1.210241 H        1 UNL1     0.2102
@<TRIPOS>BOND
     1     1     2    1
     2     1     6    1
     3     2     3    1
     4     3     4    1
     5     3    29    1
     6     3    33    1
     7     4     5    1
     8     5     6    1
     9     5     7    1
    10     5    35    1
    11     7     8    1
    12     8     9   ar
    13     8    13   ar
    14     9    10   ar
    15     9    36    1
    16    10    11   ar
    17    10    26    1
    18    11    12   ar
    19    11    14    1
    20    12    13   ar
    21    12    17    1
    22    13    37    1
    23    14    15    1
    24    14    25    2
    25    15    16    1
    26    15    38    1
    27    15    39    1
    28    16    17    1
    29    16    18    1
    30    16    40    1
    31    18    19   ar
    32    18    23   ar
    33    19    20   ar
    34    19    41    1
    35    20    21   ar
    36    20    42    1
    37    21    22   ar
    38    21    24    1
    39    22    23   ar
    40    22    43    1
    41    23    44    1
    42    24    45    1
    43    26    46    1
    44    27    47    1
    45    28    48    1
    46    29    49    1
    47    30    50    1
    48     1    31    1
    49     1    27    1
    50     2    32    1
    51     2    28    1
    52     4    34    1
    53     4    30    1
