@<TRIPOS>MOLECULE
*****
 50 53 0 0 0
SMALL
GASTEIGER

@<TRIPOS>ATOM
     1 C         -0.992466   -1.816311   -0.697733 C.3        1 UNL1     0.1889
     2 C         -0.17106   -1.023984   0.354622 C.3        1 UNL1     0.1342
     3 C         1.178523   -1.65816   0.724638 C.3        1 UNL1     0.1174
     4 C         1.136533   -3.1883   0.719582 C.3        1 UNL1     0.1456
     5 C         0.446359   -3.755661   -0.534262 C.3        1 UNL1     0.2326
     6 O         -0.874758   -3.230309   -0.64162 O.3        1 UNL1     -0.3076
     7 O         1.219468   -3.593052   -1.737251 O.3        1 UNL1     -0.4605
     8 C         1.042255   -2.400344   -2.415168 C.ar        1 UNL1     0.1310
     9 C         2.053388   -1.481649   -2.716679 C.ar        1 UNL1     0.0226
     10 C         1.77572   -0.306271   -3.424698 C.ar        1 UNL1     0.1343
     11 C         0.483091   -0.032288   -3.869538 C.ar        1 UNL1     0.1007
     12 C         -0.542435   -0.92213   -3.538992 C.ar        1 UNL1     0.1389
     13 C         -0.263456   -2.1026   -2.824785 C.ar        1 UNL1     0.0229
     14 C         0.149165   1.152561   -4.69342 C.2        1 UNL1     0.1740
     15 C         -1.236287   1.173367   -5.269302 C.3        1 UNL1     0.0520
     16 C         -2.204061   0.653587   -4.215168 C.3        1 UNL1     0.1322
     17 O         -1.867625   -0.698161   -3.832211 O.3        1 UNL1     -0.4828
     18 C         -2.4094   1.613215   -3.040572 C.ar        1 UNL1     -0.0067
     19 C         -3.692263   1.745548   -2.470517 C.ar        1 UNL1     -0.0516
     20 C         -3.924714   2.648942   -1.426578 C.ar        1 UNL1     -0.0198
     21 C         -2.8866   3.429247   -0.949848 C.ar        1 UNL1     0.1169
     22 C         -1.604873   3.297586   -1.468191 C.ar        1 UNL1     -0.0198
     23 C         -1.368115   2.38102   -2.49965 C.ar        1 UNL1     -0.0516
     24 O         -3.159131   4.32504   0.041961 O.3        1 UNL1     -0.5068
     25 O         0.958663   2.034055   -4.969402 O.2        1 UNL1     -0.2917
     26 O         2.806449   0.548788   -3.68558 O.3        1 UNL1     -0.5058
     27 O         -0.834873   -1.329744   -2.021064 O.3        1 UNL1     -0.3648
     28 O         -0.947002   -0.931933   1.563814 O.3        1 UNL1     -0.3841
     29 O         2.227114   -1.130592   -0.090383 O.3        1 UNL1     -0.3863
     30 O         0.423816   -3.64652   1.889094 O.3        1 UNL1     -0.3829
     31 H         -2.048839   -1.638024   -0.468892 H        1 UNL1     0.0937
     32 H         0.0   0.0   0.0 H        1 UNL1     0.0671
     33 H         1.42359   -1.350353   1.750756 H        1 UNL1     0.0649
     34 H         2.153487   -3.590553   0.785898 H        1 UNL1     0.0683
     35 H         0.347079   -4.827082   -0.319604 H        1 UNL1     0.1085
     36 H         3.088049   -1.66373   -2.447526 H        1 UNL1     0.0691
     37 H         -1.079716   -2.778473   -2.579003 H        1 UNL1     0.0691
     38 H         -1.23595   0.530834   -6.15625 H        1 UNL1     0.0385
     39 H         -1.478008   2.193642   -5.586145 H        1 UNL1     0.0385
     40 H         -3.188491   0.566189   -4.694521 H        1 UNL1     0.0789
     41 H         -4.525754   1.15104   -2.833152 H        1 UNL1     0.0623
     42 H         -4.921018   2.75037   -1.003374 H        1 UNL1     0.0654
     43 H         -0.781435   3.892896   -1.092073 H        1 UNL1     0.0654
     44 H         -0.352318   2.296751   -2.873683 H        1 UNL1     0.0623
     45 H         -3.472296   3.835534   0.819797 H        1 UNL1     0.2921
     46 H         2.802326   0.782687   -4.62722 H        1 UNL1     0.2922
     47 H         -0.255174   -0.555288   -2.026224 H        1 UNL1     0.2126
     48 H         -0.788032   -0.041075   1.931012 H        1 UNL1     0.2101
     49 H         2.405206   -1.733186   -0.829949 H        1 UNL1     0.2100
     50 H         0.100439   -2.858547   2.373075 H        1 UNL1     0.2102
@<TRIPOS>BOND
     1     1     2    1
     2     1     6    1
     3     2     3    1
     4     3     4    1
     5     3    29    1
     6     3    33    1
     7     4     5    1
     8     5     6    1
     9     5     7    1
    10     5    35    1
    11     7     8    1
    12     8     9   ar
    13     8    13   ar
    14     9    10   ar
    15     9    36    1
    16    10    11   ar
    17    10    26    1
    18    11    12   ar
    19    11    14    1
    20    12    13   ar
    21    12    17    1
    22    13    37    1
    23    14    15    1
    24    14    25    2
    25    15    16    1
    26    15    38    1
    27    15    39    1
    28    16    17    1
    29    16    18    1
    30    16    40    1
    31    18    19   ar
    32    18    23   ar
    33    19    20   ar
    34    19    41    1
    35    20    21   ar
    36    20    42    1
    37    21    22   ar
    38    21    24    1
    39    22    23   ar
    40    22    43    1
    41    23    44    1
    42    24    45    1
    43    26    46    1
    44    27    47    1
    45    28    48    1
    46    29    49    1
    47    30    50    1
    48     1    31    1
    49     1    27    1
    50     2    32    1
    51     2    28    1
    52     4    34    1
    53     4    30    1
