@<TRIPOS>MOLECULE
*****
 50 53 0 0 0
SMALL
GASTEIGER

@<TRIPOS>ATOM
     1 C         1.209463   0.425795   1.768249 C.3        1 UNL1     0.1889
     2 C         -0.150013   0.37351   1.020563 C.3        1 UNL1     0.1342
     3 C         -0.899784   1.713095   0.958753 C.3        1 UNL1     0.1174
     4 C         -0.703672   2.56163   2.21758 C.3        1 UNL1     0.1456
     5 C         0.770098   2.633722   2.657088 C.3        1 UNL1     0.2326
     6 O         1.278675   1.318863   2.870081 O.3        1 UNL1     -0.3076
     7 O         1.592369   3.423017   1.778337 O.3        1 UNL1     -0.4605
     8 C         2.645029   4.094577   2.373688 C.ar        1 UNL1     0.1310
     9 C         2.523775   5.080001   3.359354 C.ar        1 UNL1     0.0226
     10 C         3.654255   5.691397   3.914433 C.ar        1 UNL1     0.1343
     11 C         4.935521   5.314844   3.513927 C.ar        1 UNL1     0.1007
     12 C         5.068249   4.36125   2.501096 C.ar        1 UNL1     0.1389
     13 C         3.93133   3.748539   1.941247 C.ar        1 UNL1     0.0229
     14 C         6.165734   5.867631   4.126427 C.2        1 UNL1     0.1740
     15 C         7.446569   5.191387   3.734375 C.3        1 UNL1     0.0520
     16 C         7.386894   4.871591   2.247053 C.3        1 UNL1     0.1322
     17 O         6.276525   3.994663   1.95525 O.3        1 UNL1     -0.4828
     18 C         7.473202   6.106771   1.347272 C.ar        1 UNL1     -0.0067
     19 C         7.620636   5.940332   -0.045127 C.ar        1 UNL1     -0.0516
     20 C         7.750166   7.048149   -0.89125 C.ar        1 UNL1     -0.0198
     21 C         7.741198   8.32448   -0.357652 C.ar        1 UNL1     0.1169
     22 C         7.564057   8.52168   1.005642 C.ar        1 UNL1     -0.0198
     23 C         7.415995   7.414657   1.84982 C.ar        1 UNL1     -0.0516
     24 O         7.907868   9.37768   -1.208177 O.3        1 UNL1     -0.5068
     25 O         6.159179   6.765994   4.963916 O.2        1 UNL1     -0.2917
     26 O         3.467424   6.64617   4.871035 O.3        1 UNL1     -0.5058
     27 O         2.324777   0.573053   0.903855 O.3        1 UNL1     -0.3648
     28 O         -1.006406   -0.565946   1.696372 O.3        1 UNL1     -0.3841
     29 O         -0.577389   2.419731   -0.240771 O.3        1 UNL1     -0.3863
     30 O         -1.482261   1.997502   3.295192 O.3        1 UNL1     -0.3829
     31 H         1.352127   -0.558629   2.227198 H        1 UNL1     0.0937
     32 H         0.0   0.0   -0.0 H        1 UNL1     0.0671
     33 H         -1.974173   1.493096   0.887981 H        1 UNL1     0.0649
     34 H         -1.080265   3.576275   2.04707 H        1 UNL1     0.0683
     35 H         0.729866   3.122976   3.638358 H        1 UNL1     0.1085
     36 H         1.557879   5.376828   3.753128 H        1 UNL1     0.0691
     37 H         4.061572   3.009805   1.153336 H        1 UNL1     0.0691
     38 H         7.534895   4.277581   4.331605 H        1 UNL1     0.0385
     39 H         8.288858   5.845721   3.983726 H        1 UNL1     0.0385
     40 H         8.277857   4.275233   2.008176 H        1 UNL1     0.0789
     41 H         7.639902   4.94857   -0.487493 H        1 UNL1     0.0623
     42 H         7.875189   6.906365   -1.961894 H        1 UNL1     0.0654
     43 H         7.540442   9.517361   1.432223 H        1 UNL1     0.0654
     44 H         7.268919   7.606042   2.908397 H        1 UNL1     0.0623
     45 H         8.322612   9.051142   -2.023086 H        1 UNL1     0.2921
     46 H         4.088943   6.498431   5.601309 H        1 UNL1     0.2922
     47 H         2.503344   1.510364   0.744409 H        1 UNL1     0.2126
     48 H         -1.894089   -0.160314   1.731196 H        1 UNL1     0.2101
     49 H         0.23384   2.05619   -0.630052 H        1 UNL1     0.2100
     50 H         -2.273709   1.57218   2.904778 H        1 UNL1     0.2102
@<TRIPOS>BOND
     1     1     2    1
     2     1     6    1
     3     2     3    1
     4     3     4    1
     5     3    29    1
     6     3    33    1
     7     4     5    1
     8     5     6    1
     9     5     7    1
    10     5    35    1
    11     7     8    1
    12     8     9   ar
    13     8    13   ar
    14     9    10   ar
    15     9    36    1
    16    10    11   ar
    17    10    26    1
    18    11    12   ar
    19    11    14    1
    20    12    13   ar
    21    12    17    1
    22    13    37    1
    23    14    15    1
    24    14    25    2
    25    15    16    1
    26    15    38    1
    27    15    39    1
    28    16    17    1
    29    16    18    1
    30    16    40    1
    31    18    19   ar
    32    18    23   ar
    33    19    20   ar
    34    19    41    1
    35    20    21   ar
    36    20    42    1
    37    21    22   ar
    38    21    24    1
    39    22    23   ar
    40    22    43    1
    41    23    44    1
    42    24    45    1
    43    26    46    1
    44    27    47    1
    45    28    48    1
    46    29    49    1
    47    30    50    1
    48     1    31    1
    49     1    27    1
    50     2    32    1
    51     2    28    1
    52     4    34    1
    53     4    30    1
