@<TRIPOS>MOLECULE
*****
 50 53 0 0 0
SMALL
GASTEIGER

@<TRIPOS>ATOM
     1 C         -0.345514   -1.336257   1.69288 C.3        1 UNL1     0.1889
     2 C         -0.469121   -0.97363   0.188498 C.3        1 UNL1     0.1342
     3 C         -1.908192   -0.948946   -0.349024 C.3        1 UNL1     0.1174
     4 C         -2.80311   -2.006534   0.301935 C.3        1 UNL1     0.1456
     5 C         -2.656398   -2.041865   1.83412 C.3        1 UNL1     0.2326
     6 O         -1.293976   -2.270521   2.186809 O.3        1 UNL1     -0.3076
     7 O         -3.226188   -0.895121   2.491111 O.3        1 UNL1     -0.4605
     8 C         -3.741393   -1.114934   3.755933 C.ar        1 UNL1     0.1310
     9 C         -4.735211   -2.046333   4.075501 C.ar        1 UNL1     0.0226
     10 C         -5.179715   -2.207017   5.393264 C.ar        1 UNL1     0.1343
     11 C         -4.623724   -1.456164   6.428124 C.ar        1 UNL1     0.1007
     12 C         -3.659741   -0.494015   6.115411 C.ar        1 UNL1     0.1389
     13 C         -3.214848   -0.330787   4.789946 C.ar        1 UNL1     0.0229
     14 C         -4.996057   -1.644093   7.849463 C.2        1 UNL1     0.1740
     15 C         -4.143514   -0.914788   8.845873 C.3        1 UNL1     0.0520
     16 C         -3.83373   0.469565   8.293102 C.3        1 UNL1     0.1322
     17 O         -3.123855   0.373712   7.038527 O.3        1 UNL1     -0.4828
     18 C         -5.042883   1.407664   8.267732 C.ar        1 UNL1     -0.0067
     19 C         -5.325338   2.141891   7.097543 C.ar        1 UNL1     -0.0516
     20 C         -6.395143   3.043986   7.056233 C.ar        1 UNL1     -0.0198
     21 C         -7.183655   3.225882   8.17828 C.ar        1 UNL1     0.1169
     22 C         -6.951039   2.492727   9.334659 C.ar        1 UNL1     -0.0198
     23 C         -5.892629   1.577   9.370298 C.ar        1 UNL1     -0.0516
     24 O         -8.193192   4.140726   8.112738 O.3        1 UNL1     -0.5068
     25 O         -5.887163   -2.403671   8.220217 O.2        1 UNL1     -0.2917
     26 O         -6.152517   -3.131866   5.637999 O.3        1 UNL1     -0.5058
     27 O         -0.235712   -0.203697   2.540252 O.3        1 UNL1     -0.3648
     28 O         0.257649   -1.95209   -0.577744 O.3        1 UNL1     -0.3841
     29 O         -2.457661   0.367661   -0.266783 O.3        1 UNL1     -0.3863
     30 O         -2.462068   -3.306371   -0.227029 O.3        1 UNL1     -0.3829
     31 H         0.611561   -1.855816   1.811813 H        1 UNL1     0.0937
     32 H         0.0   0.0   0.0 H        1 UNL1     0.0671
     33 H         -1.86936   -1.182384   -1.422206 H        1 UNL1     0.0649
     34 H         -3.8513   -1.820119   0.043195 H        1 UNL1     0.0683
     35 H         -3.217636   -2.936034   2.13304 H        1 UNL1     0.1085
     36 H         -5.167286   -2.699274   3.325102 H        1 UNL1     0.0691
     37 H         -2.46415   0.42597   4.572541 H        1 UNL1     0.0691
     38 H         -3.227168   -1.497753   8.987257 H        1 UNL1     0.0385
     39 H         -4.671271   -0.869229   9.804609 H        1 UNL1     0.0385
     40 H         -3.116065   0.93903   8.979455 H        1 UNL1     0.0789
     41 H         -4.715677   2.023842   6.20646 H        1 UNL1     0.0623
     42 H         -6.595466   3.613051   6.151774 H        1 UNL1     0.0654
     43 H         -7.571603   2.616311   10.214169 H        1 UNL1     0.0654
     44 H         -5.746318   1.013495   10.286759 H        1 UNL1     0.0623
     45 H         -7.805521   5.013077   7.93545 H        1 UNL1     0.2921
     46 H         -5.837033   -3.765331   6.301778 H        1 UNL1     0.2922
     47 H         0.509039   0.349163   2.265386 H        1 UNL1     0.2126
     48 H         1.192939   -1.882024   -0.305614 H        1 UNL1     0.2101
     49 H         -2.019038   0.948975   -0.908248 H        1 UNL1     0.2100
     50 H         -2.697704   -3.316246   -1.177866 H        1 UNL1     0.2102
@<TRIPOS>BOND
     1     1     2    1
     2     1     6    1
     3     2     3    1
     4     3     4    1
     5     3    29    1
     6     3    33    1
     7     4     5    1
     8     5     6    1
     9     5     7    1
    10     5    35    1
    11     7     8    1
    12     8     9   ar
    13     8    13   ar
    14     9    10   ar
    15     9    36    1
    16    10    11   ar
    17    10    26    1
    18    11    12   ar
    19    11    14    1
    20    12    13   ar
    21    12    17    1
    22    13    37    1
    23    14    15    1
    24    14    25    2
    25    15    16    1
    26    15    38    1
    27    15    39    1
    28    16    17    1
    29    16    18    1
    30    16    40    1
    31    18    19   ar
    32    18    23   ar
    33    19    20   ar
    34    19    41    1
    35    20    21   ar
    36    20    42    1
    37    21    22   ar
    38    21    24    1
    39    22    23   ar
    40    22    43    1
    41    23    44    1
    42    24    45    1
    43    26    46    1
    44    27    47    1
    45    28    48    1
    46    29    49    1
    47    30    50    1
    48     1    31    1
    49     1    27    1
    50     2    32    1
    51     2    28    1
    52     4    34    1
    53     4    30    1
