@<TRIPOS>MOLECULE
*****
 50 53 0 0 0
SMALL
GASTEIGER

@<TRIPOS>ATOM
     1 C         0.743629   0.542683   1.980736 C.3        1 UNL1     0.1889
     2 C         -0.233985   0.725683   0.788795 C.3        1 UNL1     0.1342
     3 C         -0.248908   2.137338   0.182601 C.3        1 UNL1     0.1174
     4 C         -0.038119   3.234735   1.228739 C.3        1 UNL1     0.1456
     5 C         1.128767   2.923544   2.183674 C.3        1 UNL1     0.2326
     6 O         0.909038   1.670521   2.827505 O.3        1 UNL1     -0.3076
     7 O         2.421831   3.019767   1.559136 O.3        1 UNL1     -0.4605
     8 C         3.45941   3.434937   2.374361 C.ar        1 UNL1     0.1310
     9 C         3.407681   4.510624   3.267403 C.ar        1 UNL1     0.0226
     10 C         4.50935   4.842898   4.064787 C.ar        1 UNL1     0.1343
     11 C         5.682624   4.092051   4.005641 C.ar        1 UNL1     0.1007
     12 C         5.760423   3.040925   3.088109 C.ar        1 UNL1     0.1389
     13 C         4.653474   2.708669   2.284555 C.ar        1 UNL1     0.0229
     14 C         6.846963   4.346833   4.885161 C.2        1 UNL1     0.1740
     15 C         7.931111   3.310275   4.843693 C.3        1 UNL1     0.0520
     16 C         8.121637   2.869916   3.398791 C.3        1 UNL1     0.1322
     17 O         6.901818   2.304822   2.86985 O.3        1 UNL1     -0.4828
     18 C         8.764479   3.936717   2.509177 C.ar        1 UNL1     -0.0067
     19 C         10.073282   3.73708   2.024004 C.ar        1 UNL1     -0.0516
     20 C         10.708208   4.71362   1.247344 C.ar        1 UNL1     -0.0198
     21 C         10.049243   5.894536   0.955745 C.ar        1 UNL1     0.1169
     22 C         8.747495   6.106126   1.391087 C.ar        1 UNL1     -0.0198
     23 C         8.105542   5.121958   2.152247 C.ar        1 UNL1     -0.0516
     24 O         10.71335   6.838294   0.228639 O.3        1 UNL1     -0.5068
     25 O         6.910386   5.292882   5.665836 O.2        1 UNL1     -0.2917
     26 O         4.394396   5.904234   4.914456 O.3        1 UNL1     -0.5058
     27 O         1.991595   -0.019314   1.607205 O.3        1 UNL1     -0.3648
     28 O         -1.569205   0.441797   1.246289 O.3        1 UNL1     -0.3841
     29 O         0.668374   2.23002   -0.909248 O.3        1 UNL1     -0.3863
     30 O         -1.245879   3.386699   2.005857 O.3        1 UNL1     -0.3829
     31 H         0.295898   -0.208992   2.63998 H        1 UNL1     0.0937
     32 H         0.0   0.0   -0.0 H        1 UNL1     0.0671
     33 H         -1.242654   2.30333   -0.256303 H        1 UNL1     0.0649
     34 H         0.146587   4.193938   0.732538 H        1 UNL1     0.0683
     35 H         1.051053   3.697645   2.957372 H        1 UNL1     0.1085
     36 H         2.506037   5.098363   3.400526 H        1 UNL1     0.0691
     37 H         4.739983   1.886554   1.577352 H        1 UNL1     0.0691
     38 H         7.612585   2.472526   5.473172 H        1 UNL1     0.0385
     39 H         8.846902   3.731371   5.272394 H        1 UNL1     0.0385
     40 H         8.831598   2.031815   3.406751 H        1 UNL1     0.0789
     41 H         10.615256   2.822575   2.246704 H        1 UNL1     0.0623
     42 H         11.722033   4.552923   0.889088 H        1 UNL1     0.0654
     43 H         8.216703   7.0209   1.155803 H        1 UNL1     0.0654
     44 H         7.084664   5.316239   2.466746 H        1 UNL1     0.0623
     45 H         10.415519   6.780527   -0.693682 H        1 UNL1     0.2921
     46 H         4.851291   5.703482   5.746536 H        1 UNL1     0.2922
     47 H         2.07534   -0.915019   1.962958 H        1 UNL1     0.2126
     48 H         -1.621482   -0.525003   1.373951 H        1 UNL1     0.2101
     49 H         1.138861   3.07807   -0.873923 H        1 UNL1     0.2100
     50 H         -1.940301   3.747324   1.416417 H        1 UNL1     0.2102
@<TRIPOS>BOND
     1     1     2    1
     2     1     6    1
     3     2     3    1
     4     3     4    1
     5     3    29    1
     6     3    33    1
     7     4     5    1
     8     5     6    1
     9     5     7    1
    10     5    35    1
    11     7     8    1
    12     8     9   ar
    13     8    13   ar
    14     9    10   ar
    15     9    36    1
    16    10    11   ar
    17    10    26    1
    18    11    12   ar
    19    11    14    1
    20    12    13   ar
    21    12    17    1
    22    13    37    1
    23    14    15    1
    24    14    25    2
    25    15    16    1
    26    15    38    1
    27    15    39    1
    28    16    17    1
    29    16    18    1
    30    16    40    1
    31    18    19   ar
    32    18    23   ar
    33    19    20   ar
    34    19    41    1
    35    20    21   ar
    36    20    42    1
    37    21    22   ar
    38    21    24    1
    39    22    23   ar
    40    22    43    1
    41    23    44    1
    42    24    45    1
    43    26    46    1
    44    27    47    1
    45    28    48    1
    46    29    49    1
    47    30    50    1
    48     1    31    1
    49     1    27    1
    50     2    32    1
    51     2    28    1
    52     4    34    1
    53     4    30    1
