@<TRIPOS>MOLECULE
*****
 50 53 0 0 0
SMALL
GASTEIGER

@<TRIPOS>ATOM
     1 C         0.708952   -2.036547   -0.34737 C.3        1 UNL1     0.1889
     2 C         -0.228616   -1.014365   0.349802 C.3        1 UNL1     0.1342
     3 C         -0.175469   -1.038867   1.885067 C.3        1 UNL1     0.1174
     4 C         0.046834   -2.444509   2.448867 C.3        1 UNL1     0.1456
     5 C         1.175224   -3.199848   1.723219 C.3        1 UNL1     0.2326
     6 O         0.892445   -3.272304   0.327635 O.3        1 UNL1     -0.3076
     7 O         2.48741   -2.682096   2.008561 O.3        1 UNL1     -0.4605
     8 C         2.803764   -2.536569   3.347318 C.ar        1 UNL1     0.1310
     9 C         2.613004   -1.37502   4.103438 C.ar        1 UNL1     0.0226
     10 C         2.95057   -1.331857   5.46141 C.ar        1 UNL1     0.1343
     11 C         3.465452   -2.457747   6.102587 C.ar        1 UNL1     0.1007
     12 C         3.698721   -3.610824   5.34841 C.ar        1 UNL1     0.1389
     13 C         3.361683   -3.653146   3.982378 C.ar        1 UNL1     0.0229
     14 C         3.760837   -2.493524   7.553663 C.2        1 UNL1     0.1740
     15 C         4.094287   -3.844438   8.115261 C.3        1 UNL1     0.0520
     16 C         4.980549   -4.575986   7.116595 C.3        1 UNL1     0.1322
     17 O         4.301204   -4.740178   5.852238 O.3        1 UNL1     -0.4828
     18 C         6.393344   -3.997397   7.007183 C.ar        1 UNL1     -0.0067
     19 C         7.289681   -4.533199   6.059707 C.ar        1 UNL1     -0.0516
     20 C         8.603683   -4.059336   5.965814 C.ar        1 UNL1     -0.0198
     21 C         9.034719   -3.057349   6.81673 C.ar        1 UNL1     0.1169
     22 C         8.165625   -2.486625   7.737484 C.ar        1 UNL1     -0.0198
     23 C         6.84618   -2.947563   7.819083 C.ar        1 UNL1     -0.0516
     24 O         10.332191   -2.647574   6.721598 O.3        1 UNL1     -0.5068
     25 O         3.667593   -1.512708   8.287005 O.2        1 UNL1     -0.2917
     26 O         2.740736   -0.168048   6.141928 O.3        1 UNL1     -0.5058
     27 O         1.945215   -1.477987   -0.762644 O.3        1 UNL1     -0.3648
     28 O         -1.585243   -1.302496   -0.036525 O.3        1 UNL1     -0.3841
     29 O         0.773876   -0.089621   2.374769 O.3        1 UNL1     -0.3863
     30 O         -1.175204   -3.203877   2.323677 O.3        1 UNL1     -0.3829
     31 H         0.21632   -2.326007   -1.282039 H        1 UNL1     0.0937
     32 H         0.0   0.0   0.0 H        1 UNL1     0.0671
     33 H         -1.150207   -0.696613   2.259859 H        1 UNL1     0.0649
     34 H         0.279878   -2.386156   3.517832 H        1 UNL1     0.0683
     35 H         1.104895   -4.221785   2.116382 H        1 UNL1     0.1085
     36 H         2.164892   -0.48424   3.677027 H        1 UNL1     0.0691
     37 H         3.554234   -4.562524   3.41718 H        1 UNL1     0.0691
     38 H         3.151706   -4.379461   8.272804 H        1 UNL1     0.0385
     39 H         4.582677   -3.71837   9.087557 H        1 UNL1     0.0385
     40 H         5.114041   -5.599769   7.49152 H        1 UNL1     0.0789
     41 H         6.978336   -5.326669   5.386565 H        1 UNL1     0.0623
     42 H         9.288852   -4.48884   5.239122 H        1 UNL1     0.0654
     43 H         8.488394   -1.69109   8.398433 H        1 UNL1     0.0654
     44 H         6.191464   -2.471631   8.542741 H        1 UNL1     0.0623
     45 H         10.856663   -3.135145   7.377282 H        1 UNL1     0.2921
     46 H         2.452128   -0.369508   7.046102 H        1 UNL1     0.2922
     47 H         1.816021   -0.569625   -1.069315 H        1 UNL1     0.2126
     48 H         -1.537643   -1.796001   -0.877904 H        1 UNL1     0.2101
     49 H         0.935176   0.592256   1.703339 H        1 UNL1     0.2100
     50 H         -1.095368   -3.999156   2.890131 H        1 UNL1     0.2102
@<TRIPOS>BOND
     1     1     2    1
     2     1     6    1
     3     2     3    1
     4     3     4    1
     5     3    29    1
     6     3    33    1
     7     4     5    1
     8     5     6    1
     9     5     7    1
    10     5    35    1
    11     7     8    1
    12     8     9   ar
    13     8    13   ar
    14     9    10   ar
    15     9    36    1
    16    10    11   ar
    17    10    26    1
    18    11    12   ar
    19    11    14    1
    20    12    13   ar
    21    12    17    1
    22    13    37    1
    23    14    15    1
    24    14    25    2
    25    15    16    1
    26    15    38    1
    27    15    39    1
    28    16    17    1
    29    16    18    1
    30    16    40    1
    31    18    19   ar
    32    18    23   ar
    33    19    20   ar
    34    19    41    1
    35    20    21   ar
    36    20    42    1
    37    21    22   ar
    38    21    24    1
    39    22    23   ar
    40    22    43    1
    41    23    44    1
    42    24    45    1
    43    26    46    1
    44    27    47    1
    45    28    48    1
    46    29    49    1
    47    30    50    1
    48     1    31    1
    49     1    27    1
    50     2    32    1
    51     2    28    1
    52     4    34    1
    53     4    30    1
