@<TRIPOS>MOLECULE
*****
 50 53 0 0 0
SMALL
GASTEIGER

@<TRIPOS>ATOM
     1 C         -1.569395   0.002474   -1.519144 C.3        1 UNL1     0.1889
     2 C         -0.077009   -0.038768   -1.093677 C.3        1 UNL1     0.1342
     3 C         0.792811   1.074705   -1.697049 C.3        1 UNL1     0.1174
     4 C         0.369426   1.454231   -3.118253 C.3        1 UNL1     0.1456
     5 C         -1.152977   1.641889   -3.250308 C.3        1 UNL1     0.2326
     6 O         -1.826506   0.453839   -2.840718 O.3        1 UNL1     -0.3076
     7 O         -1.643686   2.825275   -2.594472 O.3        1 UNL1     -0.4605
     8 C         -2.860928   2.700246   -1.949323 C.ar        1 UNL1     0.1310
     9 C         -3.082213   1.983871   -0.768162 C.ar        1 UNL1     0.0226
     10 C         -4.352006   1.930731   -0.181047 C.ar        1 UNL1     0.1343
     11 C         -5.427277   2.613042   -0.748573 C.ar        1 UNL1     0.1007
     12 C         -5.227798   3.297968   -1.950184 C.ar        1 UNL1     0.1389
     13 C         -3.951522   3.349062   -2.541742 C.ar        1 UNL1     0.0229
     14 C         -6.770395   2.660018   -0.125692 C.2        1 UNL1     0.1740
     15 C         -7.742264   3.618047   -0.749551 C.3        1 UNL1     0.0520
     16 C         -7.581499   3.550828   -2.26203 C.3        1 UNL1     0.1322
     17 O         -6.23845   3.913521   -2.65157 O.3        1 UNL1     -0.4828
     18 C         -8.090054   2.245342   -2.878311 C.ar        1 UNL1     -0.0067
     19 C         -7.206375   1.444083   -3.630181 C.ar        1 UNL1     -0.0516
     20 C         -7.650869   0.26846   -4.246864 C.ar        1 UNL1     -0.0198
     21 C         -8.97538   -0.112052   -4.125593 C.ar        1 UNL1     0.1169
     22 C         -9.861712   0.638464   -3.364029 C.ar        1 UNL1     -0.0198
     23 C         -9.413125   1.804364   -2.731966 C.ar        1 UNL1     -0.0516
     24 O         -9.380734   -1.242965   -4.771446 O.3        1 UNL1     -0.5068
     25 O         -7.069997   2.027849   0.883806 O.2        1 UNL1     -0.2917
     26 O         -4.501277   1.213753   0.970146 O.3        1 UNL1     -0.5058
     27 O         -2.409316   0.645168   -0.573488 O.3        1 UNL1     -0.3648
     28 O         0.483045   -1.296091   -1.515798 O.3        1 UNL1     -0.3841
     29 O         0.856175   2.20053   -0.819191 O.3        1 UNL1     -0.3863
     30 O         0.79005   0.416921   -4.030807 O.3        1 UNL1     -0.3829
     31 H         -1.920337   -1.035215   -1.53015 H        1 UNL1     0.0937
     32 H         0.0   0.0   0.0 H        1 UNL1     0.0671
     33 H         1.822881   0.697338   -1.762394 H        1 UNL1     0.0649
     34 H         0.875462   2.376104   -3.425625 H        1 UNL1     0.0683
     35 H         -1.314225   1.74356   -4.330836 H        1 UNL1     0.1085
     36 H         -2.275743   1.478626   -0.248111 H        1 UNL1     0.0691
     37 H         -3.82275   3.888106   -3.477874 H        1 UNL1     0.0691
     38 H         -7.509178   4.619262   -0.371706 H        1 UNL1     0.0385
     39 H         -8.757223   3.359252   -0.429144 H        1 UNL1     0.0385
     40 H         -8.214149   4.340099   -2.690196 H        1 UNL1     0.0789
     41 H         -6.164082   1.725857   -3.747994 H        1 UNL1     0.0623
     42 H         -6.962565   -0.334605   -4.833859 H        1 UNL1     0.0654
     43 H         -10.897479   0.341645   -3.250026 H        1 UNL1     0.0654
     44 H         -10.130287   2.360721   -2.136156 H        1 UNL1     0.0623
     45 H         -10.170926   -1.585607   -4.323218 H        1 UNL1     0.2921
     46 H         -4.162791   1.729774   1.718853 H        1 UNL1     0.2922
     47 H         -1.898819   1.275232   -0.045973 H        1 UNL1     0.2126
     48 H         0.489045   -1.877182   -0.730922 H        1 UNL1     0.2101
     49 H         0.723714   3.019499   -1.322718 H        1 UNL1     0.2100
     50 H         1.409914   0.816039   -4.675932 H        1 UNL1     0.2102
@<TRIPOS>BOND
     1     1     2    1
     2     1     6    1
     3     2     3    1
     4     3     4    1
     5     3    29    1
     6     3    33    1
     7     4     5    1
     8     5     6    1
     9     5     7    1
    10     5    35    1
    11     7     8    1
    12     8     9   ar
    13     8    13   ar
    14     9    10   ar
    15     9    36    1
    16    10    11   ar
    17    10    26    1
    18    11    12   ar
    19    11    14    1
    20    12    13   ar
    21    12    17    1
    22    13    37    1
    23    14    15    1
    24    14    25    2
    25    15    16    1
    26    15    38    1
    27    15    39    1
    28    16    17    1
    29    16    18    1
    30    16    40    1
    31    18    19   ar
    32    18    23   ar
    33    19    20   ar
    34    19    41    1
    35    20    21   ar
    36    20    42    1
    37    21    22   ar
    38    21    24    1
    39    22    23   ar
    40    22    43    1
    41    23    44    1
    42    24    45    1
    43    26    46    1
    44    27    47    1
    45    28    48    1
    46    29    49    1
    47    30    50    1
    48     1    31    1
    49     1    27    1
    50     2    32    1
    51     2    28    1
    52     4    34    1
    53     4    30    1
