@<TRIPOS>MOLECULE
*****
 50 53 0 0 0
SMALL
GASTEIGER

@<TRIPOS>ATOM
     1 C         -0.385612   -1.39572   1.63526 C.3        1 UNL1     0.1889
     2 C         -0.423608   -1.003101   0.133811 C.3        1 UNL1     0.1342
     3 C         -1.820095   -1.046659   -0.505244 C.3        1 UNL1     0.1174
     4 C         -2.695472   -2.169311   0.057326 C.3        1 UNL1     0.1456
     5 C         -2.655544   -2.23465   1.595019 C.3        1 UNL1     0.2326
     6 O         -1.310416   -2.394389   2.039972 O.3        1 UNL1     -0.3076
     7 O         -3.336306   -1.138916   2.233181 O.3        1 UNL1     -0.4605
     8 C         -3.925446   -1.419124   3.452987 C.ar        1 UNL1     0.1310
     9 C         -4.709263   -2.543087   3.735187 C.ar        1 UNL1     0.0226
     10 C         -5.249457   -2.747024   5.010531 C.ar        1 UNL1     0.1343
     11 C         -4.998927   -1.84315   6.042077 C.ar        1 UNL1     0.1007
     12 C         -4.251759   -0.696027   5.761665 C.ar        1 UNL1     0.1389
     13 C         -3.710912   -0.489858   4.47854 C.ar        1 UNL1     0.0229
     14 C         -5.474654   -2.052188   7.429212 C.2        1 UNL1     0.1740
     15 C         -4.928113   -1.101331   8.453278 C.3        1 UNL1     0.0520
     16 C         -4.883361   0.292115   7.841509 C.3        1 UNL1     0.1322
     17 O         -4.034925   0.311855   6.672392 O.3        1 UNL1     -0.4828
     18 C         -6.264384   0.918479   7.63374 C.ar        1 UNL1     -0.0067
     19 C         -6.581076   1.499516   6.388623 C.ar        1 UNL1     -0.0516
     20 C         -7.817332   2.122628   6.180377 C.ar        1 UNL1     -0.0198
     21 C         -8.740487   2.177665   7.209252 C.ar        1 UNL1     0.1169
     22 C         -8.47083   1.585238   8.436099 C.ar        1 UNL1     -0.0198
     23 C         -7.24191   0.945912   8.638769 C.ar        1 UNL1     -0.0516
     24 O         -9.918734   2.825888   6.981349 O.3        1 UNL1     -0.5068
     25 O         -6.204137   -2.983005   7.760752 O.2        1 UNL1     -0.2917
     26 O         -6.006097   -3.862899   5.220064 O.3        1 UNL1     -0.5058
     27 O         -0.402261   -0.280349   2.511876 O.3        1 UNL1     -0.3648
     28 O         0.411364   -1.919228   -0.598473 O.3        1 UNL1     -0.3841
     29 O         -2.449942   0.234169   -0.435195 O.3        1 UNL1     -0.3863
     30 O         -2.242599   -3.434033   -0.472838 O.3        1 UNL1     -0.3829
     31 H         0.589373   -1.862945   1.81185 H        1 UNL1     0.0937
     32 H         0.0   0.0   0.0 H        1 UNL1     0.0671
     33 H         -1.691989   -1.250546   -1.577503 H        1 UNL1     0.0649
     34 H         -3.73186   -2.036254   -0.272213 H        1 UNL1     0.0683
     35 H         -3.183321   -3.166438   1.833977 H        1 UNL1     0.1085
     36 H         -4.894087   -3.310641   2.991666 H        1 UNL1     0.0691
     37 H         -3.133684   0.411848   4.285596 H        1 UNL1     0.0691
     38 H         -3.924408   -1.446514   8.723373 H        1 UNL1     0.0385
     39 H         -5.555911   -1.139855   9.350031 H        1 UNL1     0.0385
     40 H         -4.373248   0.945727   8.561993 H        1 UNL1     0.0789
     41 H         -5.869958   1.47757   5.567964 H        1 UNL1     0.0623
     42 H         -8.045047   2.577452   5.219496 H        1 UNL1     0.0654
     43 H         -9.192539   1.609359   9.243852 H        1 UNL1     0.0654
     44 H         -7.069015   0.484526   9.606279 H        1 UNL1     0.0623
     45 H         -9.722343   3.75119   6.762343 H        1 UNL1     0.2921
     46 H         -5.628835   -4.376953   5.951387 H        1 UNL1     0.2922
     47 H         0.329046   0.31845   2.305746 H        1 UNL1     0.2126
     48 H         1.31625   -1.815733   -0.24605 H        1 UNL1     0.2101
     49 H         -1.996467   0.857602   -1.024674 H        1 UNL1     0.2100
     50 H         -2.404309   -3.431202   -1.439044 H        1 UNL1     0.2102
@<TRIPOS>BOND
     1     1     2    1
     2     1     6    1
     3     2     3    1
     4     3     4    1
     5     3    29    1
     6     3    33    1
     7     4     5    1
     8     5     6    1
     9     5     7    1
    10     5    35    1
    11     7     8    1
    12     8     9   ar
    13     8    13   ar
    14     9    10   ar
    15     9    36    1
    16    10    11   ar
    17    10    26    1
    18    11    12   ar
    19    11    14    1
    20    12    13   ar
    21    12    17    1
    22    13    37    1
    23    14    15    1
    24    14    25    2
    25    15    16    1
    26    15    38    1
    27    15    39    1
    28    16    17    1
    29    16    18    1
    30    16    40    1
    31    18    19   ar
    32    18    23   ar
    33    19    20   ar
    34    19    41    1
    35    20    21   ar
    36    20    42    1
    37    21    22   ar
    38    21    24    1
    39    22    23   ar
    40    22    43    1
    41    23    44    1
    42    24    45    1
    43    26    46    1
    44    27    47    1
    45    28    48    1
    46    29    49    1
    47    30    50    1
    48     1    31    1
    49     1    27    1
    50     2    32    1
    51     2    28    1
    52     4    34    1
    53     4    30    1
