@<TRIPOS>MOLECULE
*****
 50 53 0 0 0
SMALL
GASTEIGER

@<TRIPOS>ATOM
     1 C         -0.565348   0.672107   -1.999865 C.3        1 UNL1     0.1889
     2 C         0.13541   0.886895   -0.631382 C.3        1 UNL1     0.1342
     3 C         -0.334289   2.128779   0.141645 C.3        1 UNL1     0.1174
     4 C         -0.686839   3.301432   -0.776892 C.3        1 UNL1     0.1456
     5 C         -1.566271   2.875529   -1.96667 C.3        1 UNL1     0.2326
     6 O         -0.912727   1.850594   -2.711826 O.3        1 UNL1     -0.3076
     7 O         -2.912017   2.531011   -1.590379 O.3        1 UNL1     -0.4605
     8 C         -3.304825   1.233331   -1.86471 C.ar        1 UNL1     0.1310
     9 C         -2.454875   0.197086   -2.26606 C.ar        1 UNL1     0.0226
     10 C         -2.947224   -1.091625   -2.504217 C.ar        1 UNL1     0.1343
     11 C         -4.298985   -1.381366   -2.323574 C.ar        1 UNL1     0.1007
     12 C         -5.164396   -0.345188   -1.962765 C.ar        1 UNL1     0.1389
     13 C         -4.66953   0.951131   -1.725922 C.ar        1 UNL1     0.0229
     14 C         -4.858378   -2.744023   -2.479778 C.2        1 UNL1     0.1740
     15 C         -6.279856   -2.917641   -2.031663 C.3        1 UNL1     0.0520
     16 C         -7.073229   -1.690737   -2.459711 C.3        1 UNL1     0.1322
     17 O         -6.528269   -0.493586   -1.862285 O.3        1 UNL1     -0.4828
     18 C         -7.299071   -1.599357   -3.970793 C.ar        1 UNL1     -0.0067
     19 C         -6.312134   -1.005122   -4.783845 C.ar        1 UNL1     -0.0516
     20 C         -6.507529   -0.862879   -6.162812 C.ar        1 UNL1     -0.0198
     21 C         -7.685971   -1.303166   -6.738355 C.ar        1 UNL1     0.1169
     22 C         -8.66239   -1.922696   -5.969183 C.ar        1 UNL1     -0.0198
     23 C         -8.459425   -2.081736   -4.593113 C.ar        1 UNL1     -0.0516
     24 O         -7.856739   -1.113517   -8.078233 O.3        1 UNL1     -0.5068
     25 O         -4.200308   -3.704233   -2.871472 O.2        1 UNL1     -0.2917
     26 O         -2.06591   -2.057313   -2.894494 O.3        1 UNL1     -0.5058
     27 O         -1.647359   -0.24378   -1.943376 O.3        1 UNL1     -0.3648
     28 O         1.548989   1.034487   -0.860985 O.3        1 UNL1     -0.3841
     29 O         -1.391372   1.794923   1.043448 O.3        1 UNL1     -0.3863
     30 O         0.531091   3.887029   -1.286217 O.3        1 UNL1     -0.3829
     31 H         0.166668   0.184723   -2.653078 H        1 UNL1     0.0937
     32 H         0.0   0.0   0.0 H        1 UNL1     0.0671
     33 H         0.497489   2.462275   0.777763 H        1 UNL1     0.0649
     34 H         -1.203281   4.081269   -0.206328 H        1 UNL1     0.0683
     35 H         -1.594882   3.766286   -2.606679 H        1 UNL1     0.1085
     36 H         -1.385498   0.344604   -2.369952 H        1 UNL1     0.0691
     37 H         -5.364167   1.740587   -1.447115 H        1 UNL1     0.0691
     38 H         -6.27293   -3.022936   -0.941529 H        1 UNL1     0.0385
     39 H         -6.681581   -3.841343   -2.461975 H        1 UNL1     0.0385
     40 H         -8.075937   -1.784449   -2.021174 H        1 UNL1     0.0789
     41 H         -5.38234   -0.643167   -4.35475 H        1 UNL1     0.0623
     42 H         -5.744004   -0.392204   -6.777227 H        1 UNL1     0.0654
     43 H         -9.582543   -2.284736   -6.412079 H        1 UNL1     0.0654
     44 H         -9.238817   -2.579746   -4.024449 H        1 UNL1     0.0623
     45 H         -7.9995   -0.166551   -8.238207 H        1 UNL1     0.2921
     46 H         -2.376597   -2.922915   -2.585272 H        1 UNL1     0.2922
     47 H         -1.441211   -0.968533   -1.336667 H        1 UNL1     0.2126
     48 H         1.917162   1.469897   -0.068142 H        1 UNL1     0.2101
     49 H         -1.754145   0.923378   0.818505 H        1 UNL1     0.2100
     50 H         0.939343   3.244879   -1.903215 H        1 UNL1     0.2102
@<TRIPOS>BOND
     1     1     2    1
     2     1     6    1
     3     2     3    1
     4     3     4    1
     5     3    29    1
     6     3    33    1
     7     4     5    1
     8     5     6    1
     9     5     7    1
    10     5    35    1
    11     7     8    1
    12     8     9   ar
    13     8    13   ar
    14     9    10   ar
    15     9    36    1
    16    10    11   ar
    17    10    26    1
    18    11    12   ar
    19    11    14    1
    20    12    13   ar
    21    12    17    1
    22    13    37    1
    23    14    15    1
    24    14    25    2
    25    15    16    1
    26    15    38    1
    27    15    39    1
    28    16    17    1
    29    16    18    1
    30    16    40    1
    31    18    19   ar
    32    18    23   ar
    33    19    20   ar
    34    19    41    1
    35    20    21   ar
    36    20    42    1
    37    21    22   ar
    38    21    24    1
    39    22    23   ar
    40    22    43    1
    41    23    44    1
    42    24    45    1
    43    26    46    1
    44    27    47    1
    45    28    48    1
    46    29    49    1
    47    30    50    1
    48     1    31    1
    49     1    27    1
    50     2    32    1
    51     2    28    1
    52     4    34    1
    53     4    30    1
