@<TRIPOS>MOLECULE
*****
 50 53 0 0 0
SMALL
GASTEIGER

@<TRIPOS>ATOM
     1 C         0.840292   -1.600255   1.226335 C.3        1 UNL1     0.1889
     2 C         -0.329255   -0.671499   0.802647 C.3        1 UNL1     0.1342
     3 C         -0.928147   0.166287   1.942783 C.3        1 UNL1     0.1174
     4 C         -0.929167   -0.571365   3.284046 C.3        1 UNL1     0.1456
     5 C         0.418624   -1.252372   3.584129 C.3        1 UNL1     0.2326
     6 O         0.75291   -2.153662   2.531134 O.3        1 UNL1     -0.3076
     7 O         1.474475   -0.323606   3.890549 O.3        1 UNL1     -0.4605
     8 C         1.107085   0.792704   4.620209 C.ar        1 UNL1     0.1310
     9 C         1.809336   1.314333   5.712019 C.ar        1 UNL1     0.0226
     10 C         1.36414   2.463069   6.376931 C.ar        1 UNL1     0.1343
     11 C         0.217724   3.132387   5.950801 C.ar        1 UNL1     0.1007
     12 C         -0.514568   2.597741   4.887464 C.ar        1 UNL1     0.1389
     13 C         -0.068166   1.441183   4.220735 C.ar        1 UNL1     0.0229
     14 C         -0.251158   4.396854   6.563521 C.2        1 UNL1     0.1740
     15 C         -1.36576   5.094436   5.840616 C.3        1 UNL1     0.0520
     16 C         -2.355528   4.044945   5.353908 C.3        1 UNL1     0.1322
     17 O         -1.714381   3.113241   4.455059 O.3        1 UNL1     -0.4828
     18 C         -3.161197   3.389504   6.478193 C.ar        1 UNL1     -0.0067
     19 C         -3.554218   4.162527   7.590031 C.ar        1 UNL1     -0.0516
     20 C         -4.250719   3.583368   8.657469 C.ar        1 UNL1     -0.0198
     21 C         -4.553057   2.233709   8.62847 C.ar        1 UNL1     0.1169
     22 C         -4.208809   1.453495   7.532295 C.ar        1 UNL1     -0.0198
     23 C         -3.528518   2.036361   6.456411 C.ar        1 UNL1     -0.0516
     24 O         -5.199034   1.696716   9.703064 O.3        1 UNL1     -0.5068
     25 O         0.273059   4.904584   7.551393 O.2        1 UNL1     -0.2917
     26 O         2.094037   2.91987   7.435311 O.3        1 UNL1     -0.5058
     27 O         2.12187   -1.044772   0.977779 O.3        1 UNL1     -0.3648
     28 O         -1.388556   -1.486893   0.268119 O.3        1 UNL1     -0.3841
     29 O         -0.298207   1.446895   2.01594 O.3        1 UNL1     -0.3863
     30 O         -1.964802   -1.577826   3.270386 O.3        1 UNL1     -0.3829
     31 H         0.795397   -2.477991   0.57239 H        1 UNL1     0.0937
     32 H         0.0   0.0   0.0 H        1 UNL1     0.0671
     33 H         -1.97828   0.371588   1.692199 H        1 UNL1     0.0649
     34 H         -1.170385   0.125801   4.094092 H        1 UNL1     0.0683
     35 H         0.214725   -1.862161   4.473207 H        1 UNL1     0.1085
     36 H         2.737843   0.872444   6.056591 H        1 UNL1     0.0691
     37 H         -0.656919   1.044377   3.396473 H        1 UNL1     0.0691
     38 H         -0.924536   5.64098   5.000295 H        1 UNL1     0.0385
     39 H         -1.831259   5.821427   6.514836 H        1 UNL1     0.0385
     40 H         -3.096057   4.563192   4.729764 H        1 UNL1     0.0789
     41 H         -3.320847   5.222056   7.640882 H        1 UNL1     0.0623
     42 H         -4.537838   4.187468   9.514579 H        1 UNL1     0.0654
     43 H         -4.453887   0.398856   7.492513 H        1 UNL1     0.0654
     44 H         -3.28448   1.399363   5.611707 H        1 UNL1     0.0623
     45 H         -5.435487   0.779055   9.491631 H        1 UNL1     0.2921
     46 H         2.989005   3.146927   7.137168 H        1 UNL1     0.2922
     47 H         2.597207   -1.578161   0.325543 H        1 UNL1     0.2126
     48 H         -2.209291   -1.210292   0.719361 H        1 UNL1     0.2101
     49 H         -0.147087   1.687813   2.943795 H        1 UNL1     0.2100
     50 H         -2.098114   -1.885778   4.19077 H        1 UNL1     0.2102
@<TRIPOS>BOND
     1     1     2    1
     2     1     6    1
     3     2     3    1
     4     3     4    1
     5     3    29    1
     6     3    33    1
     7     4     5    1
     8     5     6    1
     9     5     7    1
    10     5    35    1
    11     7     8    1
    12     8     9   ar
    13     8    13   ar
    14     9    10   ar
    15     9    36    1
    16    10    11   ar
    17    10    26    1
    18    11    12   ar
    19    11    14    1
    20    12    13   ar
    21    12    17    1
    22    13    37    1
    23    14    15    1
    24    14    25    2
    25    15    16    1
    26    15    38    1
    27    15    39    1
    28    16    17    1
    29    16    18    1
    30    16    40    1
    31    18    19   ar
    32    18    23   ar
    33    19    20   ar
    34    19    41    1
    35    20    21   ar
    36    20    42    1
    37    21    22   ar
    38    21    24    1
    39    22    23   ar
    40    22    43    1
    41    23    44    1
    42    24    45    1
    43    26    46    1
    44    27    47    1
    45    28    48    1
    46    29    49    1
    47    30    50    1
    48     1    31    1
    49     1    27    1
    50     2    32    1
    51     2    28    1
    52     4    34    1
    53     4    30    1
