@<TRIPOS>MOLECULE
*****
 50 53 0 0 0
SMALL
GASTEIGER

@<TRIPOS>ATOM
     1 C         -0.382658   -1.372281   1.655664 C.3        1 UNL1     0.1889
     2 C         -0.496288   -0.964893   0.161989 C.3        1 UNL1     0.1342
     3 C         -1.934193   -0.88492   -0.373268 C.3        1 UNL1     0.1174
     4 C         -2.858386   -1.934514   0.249095 C.3        1 UNL1     0.1456
     5 C         -2.71245   -2.016277   1.779579 C.3        1 UNL1     0.2326
     6 O         -1.356934   -2.292802   2.124514 O.3        1 UNL1     -0.3076
     7 O         -3.249639   -0.872559   2.468533 O.3        1 UNL1     -0.4605
     8 C         -3.780845   -1.114665   3.722619 C.ar        1 UNL1     0.1310
     9 C         -4.639152   -2.170125   4.049135 C.ar        1 UNL1     0.0226
     10 C         -5.111512   -2.341078   5.355869 C.ar        1 UNL1     0.1343
     11 C         -4.717617   -1.473686   6.373867 C.ar        1 UNL1     0.1007
     12 C         -3.893624   -0.392021   6.051655 C.ar        1 UNL1     0.1389
     13 C         -3.420924   -0.218813   4.737127 C.ar        1 UNL1     0.0229
     14 C         -5.119111   -1.656514   7.787914 C.2        1 UNL1     0.1740
     15 C         -4.427351   -0.767694   8.779386 C.3        1 UNL1     0.0520
     16 C         -4.301736   0.623486   8.173751 C.3        1 UNL1     0.1322
     17 O         -3.532024   0.583236   6.95187 O.3        1 UNL1     -0.4828
     18 C         -5.633879   1.3686   8.060058 C.ar        1 UNL1     -0.0067
     19 C         -5.637203   2.728256   7.686511 C.ar        1 UNL1     -0.0516
     20 C         -6.833857   3.451749   7.619118 C.ar        1 UNL1     -0.0198
     21 C         -8.030318   2.83038   7.92929 C.ar        1 UNL1     0.1169
     22 C         -8.062914   1.483888   8.268019 C.ar        1 UNL1     -0.0198
     23 C         -6.868397   0.755377   8.317578 C.ar        1 UNL1     -0.0516
     24 O         -9.171245   3.576765   7.889325 O.3        1 UNL1     -0.5068
     25 O         -5.903497   -2.524782   8.161191 O.2        1 UNL1     -0.2917
     26 O         -5.946791   -3.390006   5.608145 O.3        1 UNL1     -0.5058
     27 O         -0.240888   -0.267102   2.533883 O.3        1 UNL1     -0.3648
     28 O         0.202533   -1.941852   -0.631677 O.3        1 UNL1     -0.3841
     29 O         -2.446395   0.443838   -0.254174 O.3        1 UNL1     -0.3863
     30 O         -2.554138   -3.228313   -0.315888 O.3        1 UNL1     -0.3829
     31 H         0.559445   -1.921628   1.759288 H        1 UNL1     0.0937
     32 H         0.0   0.0   0.0 H        1 UNL1     0.0671
     33 H         -1.902136   -1.089616   -1.452523 H        1 UNL1     0.0649
     34 H         -3.900966   -1.711627   -0.003394 H        1 UNL1     0.0683
     35 H         -3.298562   -2.902233   2.054231 H        1 UNL1     0.1085
     36 H         -4.937333   -2.910581   3.315013 H        1 UNL1     0.0691
     37 H         -2.781475   0.631999   4.511926 H        1 UNL1     0.0691
     38 H         -3.441957   -1.200928   8.981463 H        1 UNL1     0.0385
     39 H         -4.996923   -0.762093   9.714979 H        1 UNL1     0.0385
     40 H         -3.691518   1.222707   8.863018 H        1 UNL1     0.0789
     41 H         -4.710295   3.241258   7.44709 H        1 UNL1     0.0623
     42 H         -6.82205   4.502798   7.341328 H        1 UNL1     0.0654
     43 H         -8.995966   0.983548   8.498199 H        1 UNL1     0.0654
     44 H         -6.932157   -0.297333   8.575615 H        1 UNL1     0.0623
     45 H         -8.9268   4.51428   7.952799 H        1 UNL1     0.2921
     46 H         -5.736974   -3.769107   6.476287 H        1 UNL1     0.2922
     47 H         -0.320057   -0.557676   3.453208 H        1 UNL1     0.2126
     48 H         1.156028   -1.796008   -0.479004 H        1 UNL1     0.2101
     49 H         -2.99425   0.516068   0.543593 H        1 UNL1     0.2100
     50 H         -2.811158   -3.212552   -1.261089 H        1 UNL1     0.2102
@<TRIPOS>BOND
     1     1     2    1
     2     1     6    1
     3     2     3    1
     4     3     4    1
     5     3    29    1
     6     3    33    1
     7     4     5    1
     8     5     6    1
     9     5     7    1
    10     5    35    1
    11     7     8    1
    12     8     9   ar
    13     8    13   ar
    14     9    10   ar
    15     9    36    1
    16    10    11   ar
    17    10    26    1
    18    11    12   ar
    19    11    14    1
    20    12    13   ar
    21    12    17    1
    22    13    37    1
    23    14    15    1
    24    14    25    2
    25    15    16    1
    26    15    38    1
    27    15    39    1
    28    16    17    1
    29    16    18    1
    30    16    40    1
    31    18    19   ar
    32    18    23   ar
    33    19    20   ar
    34    19    41    1
    35    20    21   ar
    36    20    42    1
    37    21    22   ar
    38    21    24    1
    39    22    23   ar
    40    22    43    1
    41    23    44    1
    42    24    45    1
    43    26    46    1
    44    27    47    1
    45    28    48    1
    46    29    49    1
    47    30    50    1
    48     1    31    1
    49     1    27    1
    50     2    32    1
    51     2    28    1
    52     4    34    1
    53     4    30    1
