@<TRIPOS>MOLECULE
*****
 50 53 0 0 0
SMALL
GASTEIGER

@<TRIPOS>ATOM
     1 C         -0.820775   0.243723   2.009411 C.3        1 UNL1     0.1889
     2 C         -0.847517   0.505372   0.479455 C.3        1 UNL1     0.1342
     3 C         -0.835792   1.989516   0.082411 C.3        1 UNL1     0.1174
     4 C         -1.607966   2.872986   1.065439 C.3        1 UNL1     0.1456
     5 C         -1.261102   2.565234   2.533546 C.3        1 UNL1     0.2326
     6 O         -1.509918   1.18956   2.813693 O.3        1 UNL1     -0.3076
     7 O         0.061321   2.989416   2.911151 O.3        1 UNL1     -0.4605
     8 C         0.359533   4.320599   2.681914 C.ar        1 UNL1     0.1310
     9 C         1.584304   4.807493   2.21269 C.ar        1 UNL1     0.0226
     10 C         1.783739   6.176048   1.995464 C.ar        1 UNL1     0.1343
     11 C         0.75447   7.089354   2.219779 C.ar        1 UNL1     0.1007
     12 C         -0.45983   6.619711   2.727415 C.ar        1 UNL1     0.1389
     13 C         -0.659249   5.243888   2.948261 C.ar        1 UNL1     0.0229
     14 C         0.883363   8.535756   1.927437 C.2        1 UNL1     0.1740
     15 C         -0.385694   9.331557   2.015441 C.3        1 UNL1     0.0520
     16 C         -1.178293   8.842839   3.219973 C.3        1 UNL1     0.1322
     17 O         -1.503075   7.441554   3.085855 O.3        1 UNL1     -0.4828
     18 C         -0.55336   9.22332   4.564376 C.ar        1 UNL1     -0.0067
     19 C         -1.335746   9.15616   5.735519 C.ar        1 UNL1     -0.0516
     20 C         -0.809475   9.542148   6.974073 C.ar        1 UNL1     -0.0198
     21 C         0.492513   10.00298   7.053372 C.ar        1 UNL1     0.1169
     22 C         1.298345   10.048925   5.923167 C.ar        1 UNL1     -0.0198
     23 C         0.778158   9.645553   4.687549 C.ar        1 UNL1     -0.0516
     24 O         0.958531   10.405829   8.270311 O.3        1 UNL1     -0.5068
     25 O         1.930427   9.059948   1.55681 O.2        1 UNL1     -0.2917
     26 O         3.002028   6.586115   1.538078 O.3        1 UNL1     -0.5058
     27 O         0.477371   -0.02601   2.514234 O.3        1 UNL1     -0.3648
     28 O         -2.049806   -0.073248   -0.061291 O.3        1 UNL1     -0.3841
     29 O         0.500641   2.444702   -0.138688 O.3        1 UNL1     -0.3863
     30 O         -3.02479   2.671507   0.871263 O.3        1 UNL1     -0.3829
     31 H         -1.374118   -0.686695   2.177378 H        1 UNL1     0.0937
     32 H         0.0   0.0   0.0 H        1 UNL1     0.0671
     33 H         -1.339638   2.0805   -0.889999 H        1 UNL1     0.0649
     34 H         -1.403196   3.929372   0.859238 H        1 UNL1     0.0683
     35 H         -1.995696   3.145266   3.106096 H        1 UNL1     0.1085
     36 H         2.405314   4.143179   1.966218 H        1 UNL1     0.0691
     37 H         -1.613447   4.9039   3.345007 H        1 UNL1     0.0691
     38 H         -0.941846   9.171956   1.085522 H        1 UNL1     0.0385
     39 H         -0.13761   10.396019   2.087229 H        1 UNL1     0.0385
     40 H         -2.150523   9.353465   3.196558 H        1 UNL1     0.0789
     41 H         -2.363401   8.806607   5.698257 H        1 UNL1     0.0623
     42 H         -1.426588   9.497026   7.868023 H        1 UNL1     0.0654
     43 H         2.324034   10.393925   5.976519 H        1 UNL1     0.0654
     44 H         1.439215   9.684585   3.827127 H        1 UNL1     0.0623
     45 H         0.19755   10.60164   8.840647 H        1 UNL1     0.2921
     46 H         3.497498   6.999029   2.262939 H        1 UNL1     0.2922
     47 H         0.918954   0.798788   2.76035 H        1 UNL1     0.2126
     48 H         -2.406307   0.57108   -0.702758 H        1 UNL1     0.2101
     49 H         0.648184   3.278163   0.336042 H        1 UNL1     0.2100
     50 H         -3.347745   2.089007   1.589668 H        1 UNL1     0.2102
@<TRIPOS>BOND
     1     1     2    1
     2     1     6    1
     3     2     3    1
     4     3     4    1
     5     3    29    1
     6     3    33    1
     7     4     5    1
     8     5     6    1
     9     5     7    1
    10     5    35    1
    11     7     8    1
    12     8     9   ar
    13     8    13   ar
    14     9    10   ar
    15     9    36    1
    16    10    11   ar
    17    10    26    1
    18    11    12   ar
    19    11    14    1
    20    12    13   ar
    21    12    17    1
    22    13    37    1
    23    14    15    1
    24    14    25    2
    25    15    16    1
    26    15    38    1
    27    15    39    1
    28    16    17    1
    29    16    18    1
    30    16    40    1
    31    18    19   ar
    32    18    23   ar
    33    19    20   ar
    34    19    41    1
    35    20    21   ar
    36    20    42    1
    37    21    22   ar
    38    21    24    1
    39    22    23   ar
    40    22    43    1
    41    23    44    1
    42    24    45    1
    43    26    46    1
    44    27    47    1
    45    28    48    1
    46    29    49    1
    47    30    50    1
    48     1    31    1
    49     1    27    1
    50     2    32    1
    51     2    28    1
    52     4    34    1
    53     4    30    1
