@<TRIPOS>MOLECULE
*****
 50 53 0 0 0
SMALL
GASTEIGER

@<TRIPOS>ATOM
     1 C         1.187348   -1.377584   1.209658 C.3        1 UNL1     0.1889
     2 C         0.4043   -1.016612   -0.081263 C.3        1 UNL1     0.1342
     3 C         -0.737503   -1.983569   -0.430182 C.3        1 UNL1     0.1174
     4 C         -0.421473   -3.434213   -0.057522 C.3        1 UNL1     0.1456
     5 C         0.163132   -3.565317   1.36072 C.3        1 UNL1     0.2326
     6 O         1.3364   -2.763844   1.478842 O.3        1 UNL1     -0.3076
     7 O         -0.798629   -3.317555   2.40233 O.3        1 UNL1     -0.4605
     8 C         -0.301274   -3.291017   3.692858 C.ar        1 UNL1     0.1310
     9 C         0.483482   -4.289638   4.279555 C.ar        1 UNL1     0.0226
     10 C         0.954817   -4.162321   5.591628 C.ar        1 UNL1     0.1343
     11 C         0.672395   -3.021303   6.3414 C.ar        1 UNL1     0.1007
     12 C         -0.144481   -2.035829   5.780742 C.ar        1 UNL1     0.1389
     13 C         -0.620479   -2.165284   4.462373 C.ar        1 UNL1     0.0229
     14 C         1.214153   -2.797055   7.701681 C.2        1 UNL1     0.1740
     15 C         0.994705   -1.425794   8.270044 C.3        1 UNL1     0.0520
     16 C         -0.410447   -0.970493   7.900983 C.3        1 UNL1     0.1322
     17 O         -0.573959   -0.923297   6.466373 O.3        1 UNL1     -0.4828
     18 C         -1.517133   -1.725624   8.641084 C.ar        1 UNL1     -0.0067
     19 C         -2.429852   -2.510914   7.907275 C.ar        1 UNL1     -0.0516
     20 C         -3.482081   -3.176191   8.547729 C.ar        1 UNL1     -0.0198
     21 C         -3.636393   -3.058452   9.917457 C.ar        1 UNL1     0.1169
     22 C         -2.734086   -2.319571   10.671602 C.ar        1 UNL1     -0.0198
     23 C         -1.67096   -1.669203   10.033761 C.ar        1 UNL1     -0.0516
     24 O         -4.695049   -3.689826   10.501421 O.3        1 UNL1     -0.5068
     25 O         1.872985   -3.633795   8.313474 O.2        1 UNL1     -0.2917
     26 O         1.714434   -5.172568   6.105406 O.3        1 UNL1     -0.5058
     27 O         0.747359   -0.665923   2.355405 O.3        1 UNL1     -0.3648
     28 O         1.323817   -1.02202   -1.189038 O.3        1 UNL1     -0.3841
     29 O         -1.974509   -1.527448   0.12109 O.3        1 UNL1     -0.3863
     30 O         0.529865   -3.969723   -1.002972 O.3        1 UNL1     -0.3829
     31 H         2.216442   -1.034165   1.057645 H        1 UNL1     0.0937
     32 H         -0.0   0.0   0.0 H        1 UNL1     0.0671
     33 H         -0.87689   -1.958551   -1.519983 H        1 UNL1     0.0649
     34 H         -1.327461   -4.045654   -0.133195 H        1 UNL1     0.0683
     35 H         0.485162   -4.612627   1.418317 H        1 UNL1     0.1085
     36 H         0.784279   -5.174924   3.730092 H        1 UNL1     0.0691
     37 H         -1.255622   -1.384538   4.049429 H        1 UNL1     0.0691
     38 H         1.751233   -0.762793   7.836892 H        1 UNL1     0.0385
     39 H         1.148237   -1.457781   9.354103 H        1 UNL1     0.0385
     40 H         -0.506864   0.075273   8.222848 H        1 UNL1     0.0789
     41 H         -2.335699   -2.611834   6.829963 H        1 UNL1     0.0623
     42 H         -4.186335   -3.769059   7.96933 H        1 UNL1     0.0654
     43 H         -2.836808   -2.232974   11.746711 H        1 UNL1     0.0654
     44 H         -0.978839   -1.109275   10.655287 H        1 UNL1     0.0623
     45 H         -4.357373   -4.26897   11.203762 H        1 UNL1     0.2921
     46 H         1.136381   -5.89271   6.403167 H        1 UNL1     0.2922
     47 H         0.729798   0.284002   2.173217 H        1 UNL1     0.2126
     48 H         0.875794   -1.486302   -1.922147 H        1 UNL1     0.2101
     49 H         -2.686326   -1.638018   -0.529206 H        1 UNL1     0.2100
     50 H         0.295022   -4.906124   -1.169449 H        1 UNL1     0.2102
@<TRIPOS>BOND
     1     1     2    1
     2     1     6    1
     3     2     3    1
     4     3     4    1
     5     3    29    1
     6     3    33    1
     7     4     5    1
     8     5     6    1
     9     5     7    1
    10     5    35    1
    11     7     8    1
    12     8     9   ar
    13     8    13   ar
    14     9    10   ar
    15     9    36    1
    16    10    11   ar
    17    10    26    1
    18    11    12   ar
    19    11    14    1
    20    12    13   ar
    21    12    17    1
    22    13    37    1
    23    14    15    1
    24    14    25    2
    25    15    16    1
    26    15    38    1
    27    15    39    1
    28    16    17    1
    29    16    18    1
    30    16    40    1
    31    18    19   ar
    32    18    23   ar
    33    19    20   ar
    34    19    41    1
    35    20    21   ar
    36    20    42    1
    37    21    22   ar
    38    21    24    1
    39    22    23   ar
    40    22    43    1
    41    23    44    1
    42    24    45    1
    43    26    46    1
    44    27    47    1
    45    28    48    1
    46    29    49    1
    47    30    50    1
    48     1    31    1
    49     1    27    1
    50     2    32    1
    51     2    28    1
    52     4    34    1
    53     4    30    1
