@<TRIPOS>MOLECULE
*****
 50 53 0 0 0
SMALL
GASTEIGER

@<TRIPOS>ATOM
     1 C         -0.490718   -1.22353   1.741544 C.3        1 UNL1     0.1889
     2 C         -0.504103   -0.950747   0.213358 C.3        1 UNL1     0.1342
     3 C         -1.902758   -0.92998   -0.422091 C.3        1 UNL1     0.1174
     4 C         -2.864691   -1.927823   0.22761 C.3        1 UNL1     0.1456
     5 C         -2.82223   -1.872754   1.765637 C.3        1 UNL1     0.2326
     6 O         -1.492523   -2.106788   2.223869 O.3        1 UNL1     -0.3076
     7 O         -3.407054   -0.676949   2.312768 O.3        1 UNL1     -0.4605
     8 C         -4.021201   -0.811472   3.544942 C.ar        1 UNL1     0.1310
     9 C         -4.900118   -1.838882   3.904432 C.ar        1 UNL1     0.0226
     10 C         -5.459032   -1.897624   5.186644 C.ar        1 UNL1     0.1343
     11 C         -5.133639   -0.942668   6.148943 C.ar        1 UNL1     0.1007
     12 C         -4.289231   0.111043   5.78915 C.ar        1 UNL1     0.1389
     13 C         -3.729454   0.171353   4.499017 C.ar        1 UNL1     0.0229
     14 C         -5.62904   -1.003506   7.543587 C.2        1 UNL1     0.1740
     15 C         -5.004661   -0.027963   8.497535 C.3        1 UNL1     0.0520
     16 C         -4.837887   1.305702   7.782355 C.3        1 UNL1     0.1322
     17 O         -3.988105   1.163006   6.622796 O.3        1 UNL1     -0.4828
     18 C         -6.158951   2.031088   7.515281 C.ar        1 UNL1     -0.0067
     19 C         -6.41354   2.556104   6.231632 C.ar        1 UNL1     -0.0516
     20 C         -7.590633   3.266093   5.966432 C.ar        1 UNL1     -0.0198
     21 C         -8.515543   3.463747   6.976036 C.ar        1 UNL1     0.1169
     22 C         -8.308609   2.930183   8.241471 C.ar        1 UNL1     -0.0198
     23 C         -7.140144   2.204329   8.502014 C.ar        1 UNL1     -0.0516
     24 O         -9.632528   4.192594   6.690506 O.3        1 UNL1     -0.5068
     25 O         -6.437214   -1.839973   7.938126 O.2        1 UNL1     -0.2917
     26 O         -6.309997   -2.924885   5.473311 O.3        1 UNL1     -0.5058
     27 O         -0.41083   -0.043918   2.525712 O.3        1 UNL1     -0.3648
     28 O         0.248708   -1.988412   -0.441801 O.3        1 UNL1     -0.3841
     29 O         -2.424567   0.399944   -0.456033 O.3        1 UNL1     -0.3863
     30 O         -2.520336   -3.264026   -0.198618 O.3        1 UNL1     -0.3829
     31 H         0.443371   -1.753971   1.95646 H        1 UNL1     0.0937
     32 H         0.0   0.0   0.0 H        1 UNL1     0.0671
     33 H         -1.797502   -1.229045   -1.474327 H        1 UNL1     0.0649
     34 H         -3.888306   -1.736524   -0.113005 H        1 UNL1     0.0683
     35 H         -3.423719   -2.735634   2.077928 H        1 UNL1     0.1085
     36 H         -5.14894   -2.642118   3.219581 H        1 UNL1     0.0691
     37 H         -3.075819   1.002597   4.243504 H        1 UNL1     0.0691
     38 H         -4.035288   -0.436761   8.802044 H        1 UNL1     0.0385
     39 H         -5.635604   0.056281   9.388934 H        1 UNL1     0.0385
     40 H         -4.274814   1.965958   8.455802 H        1 UNL1     0.0789
     41 H         -5.699074   2.422393   5.424594 H        1 UNL1     0.0623
     42 H         -7.769938   3.67625   4.975658 H        1 UNL1     0.0654
     43 H         -9.033321   3.066121   9.035337 H        1 UNL1     0.0654
     44 H         -7.016077   1.792662   9.499001 H        1 UNL1     0.0623
     45 H         -9.358206   5.091635   6.447216 H        1 UNL1     0.2921
     46 H         -5.981741   -3.410778   6.246336 H        1 UNL1     0.2922
     47 H         0.354518   0.484246   2.258981 H        1 UNL1     0.2126
     48 H         1.168099   -1.91166   -0.121546 H        1 UNL1     0.2101
     49 H         -1.929899   0.93222   -1.09929 H        1 UNL1     0.2100
     50 H         -2.691675   -3.327038   -1.161107 H        1 UNL1     0.2102
@<TRIPOS>BOND
     1     1     2    1
     2     1     6    1
     3     2     3    1
     4     3     4    1
     5     3    29    1
     6     3    33    1
     7     4     5    1
     8     5     6    1
     9     5     7    1
    10     5    35    1
    11     7     8    1
    12     8     9   ar
    13     8    13   ar
    14     9    10   ar
    15     9    36    1
    16    10    11   ar
    17    10    26    1
    18    11    12   ar
    19    11    14    1
    20    12    13   ar
    21    12    17    1
    22    13    37    1
    23    14    15    1
    24    14    25    2
    25    15    16    1
    26    15    38    1
    27    15    39    1
    28    16    17    1
    29    16    18    1
    30    16    40    1
    31    18    19   ar
    32    18    23   ar
    33    19    20   ar
    34    19    41    1
    35    20    21   ar
    36    20    42    1
    37    21    22   ar
    38    21    24    1
    39    22    23   ar
    40    22    43    1
    41    23    44    1
    42    24    45    1
    43    26    46    1
    44    27    47    1
    45    28    48    1
    46    29    49    1
    47    30    50    1
    48     1    31    1
    49     1    27    1
    50     2    32    1
    51     2    28    1
    52     4    34    1
    53     4    30    1
