@<TRIPOS>MOLECULE
*****
 50 53 0 0 0
SMALL
GASTEIGER

@<TRIPOS>ATOM
     1 C         -1.349227   1.484585   0.863942 C.3        1 UNL1     0.1889
     2 C         0.010813   1.070317   0.240555 C.3        1 UNL1     0.1342
     3 C         1.236523   1.374944   1.115371 C.3        1 UNL1     0.1174
     4 C         1.080513   2.662863   1.927801 C.3        1 UNL1     0.1456
     5 C         -0.287456   2.757008   2.627915 C.3        1 UNL1     0.2326
     6 O         -1.334198   2.656961   1.665007 O.3        1 UNL1     -0.3076
     7 O         -0.435719   1.834725   3.722782 O.3        1 UNL1     -0.4605
     8 C         0.443688   1.999741   4.777742 C.ar        1 UNL1     0.1310
     9 C         0.204038   1.612617   6.100618 C.ar        1 UNL1     0.0226
     10 C         1.167329   1.807607   7.09759 C.ar        1 UNL1     0.1343
     11 C         2.404143   2.373329   6.790849 C.ar        1 UNL1     0.1007
     12 C         2.639424   2.801419   5.481588 C.ar        1 UNL1     0.1389
     13 C         1.669667   2.607658   4.47986 C.ar        1 UNL1     0.0229
     14 C         3.48937   2.525769   7.787442 C.2        1 UNL1     0.1740
     15 C         4.82157   2.943795   7.237856 C.3        1 UNL1     0.0520
     16 C         4.590367   3.997309   6.163328 C.3        1 UNL1     0.1322
     17 O         3.778166   3.467773   5.092351 O.3        1 UNL1     -0.4828
     18 C         4.115314   5.344395   6.713243 C.ar        1 UNL1     -0.0067
     19 C         4.648568   5.823687   7.927382 C.ar        1 UNL1     -0.0516
     20 C         4.201522   7.028788   8.482219 C.ar        1 UNL1     -0.0198
     21 C         3.218634   7.758536   7.837838 C.ar        1 UNL1     0.1169
     22 C         2.698077   7.32939   6.62388 C.ar        1 UNL1     -0.0198
     23 C         3.158156   6.133619   6.059509 C.ar        1 UNL1     -0.0516
     24 O         2.781254   8.908112   8.427393 O.3        1 UNL1     -0.5068
     25 O         3.356354   2.256603   8.978384 O.2        1 UNL1     -0.2917
     26 O         0.870868   1.408853   8.368295 O.3        1 UNL1     -0.5058
     27 O         -2.023265   0.416868   1.510812 O.3        1 UNL1     -0.3648
     28 O         0.180835   1.783634   -0.998387 O.3        1 UNL1     -0.3841
     29 O         1.574274   0.247129   1.925366 O.3        1 UNL1     -0.3863
     30 O         1.231065   3.798708   1.048666 O.3        1 UNL1     -0.3829
     31 H         -2.006899   1.752765   0.0299 H        1 UNL1     0.0937
     32 H         0.0   0.0   0.0 H        1 UNL1     0.0671
     33 H         2.096749   1.522662   0.447606 H        1 UNL1     0.0649
     34 H         1.876143   2.730497   2.678001 H        1 UNL1     0.0683
     35 H         -0.313146   3.780783   3.021747 H        1 UNL1     0.1085
     36 H         -0.715366   1.116709   6.39198 H        1 UNL1     0.0691
     37 H         1.876851   2.950836   3.468526 H        1 UNL1     0.0691
     38 H         5.301985   2.052535   6.820263 H        1 UNL1     0.0385
     39 H         5.446297   3.317363   8.056356 H        1 UNL1     0.0385
     40 H         5.562942   4.201178   5.695294 H        1 UNL1     0.0789
     41 H         5.414442   5.264811   8.457237 H        1 UNL1     0.0623
     42 H         4.612004   7.381802   9.425032 H        1 UNL1     0.0654
     43 H         1.938828   7.900697   6.103246 H        1 UNL1     0.0654
     44 H         2.736989   5.833849   5.10473 H        1 UNL1     0.0623
     45 H         3.425913   9.169993   9.104555 H        1 UNL1     0.2921
     46 H         0.136918   1.942414   8.711866 H        1 UNL1     0.2922
     47 H         -2.606066   -0.038075   0.886929 H        1 UNL1     0.2126
     48 H         0.277779   1.109449   -1.698251 H        1 UNL1     0.2101
     49 H         0.809624   -0.345636   2.001082 H        1 UNL1     0.2100
     50 H         2.146945   4.13343   1.142675 H        1 UNL1     0.2102
@<TRIPOS>BOND
     1     1     2    1
     2     1     6    1
     3     2     3    1
     4     3     4    1
     5     3    29    1
     6     3    33    1
     7     4     5    1
     8     5     6    1
     9     5     7    1
    10     5    35    1
    11     7     8    1
    12     8     9   ar
    13     8    13   ar
    14     9    10   ar
    15     9    36    1
    16    10    11   ar
    17    10    26    1
    18    11    12   ar
    19    11    14    1
    20    12    13   ar
    21    12    17    1
    22    13    37    1
    23    14    15    1
    24    14    25    2
    25    15    16    1
    26    15    38    1
    27    15    39    1
    28    16    17    1
    29    16    18    1
    30    16    40    1
    31    18    19   ar
    32    18    23   ar
    33    19    20   ar
    34    19    41    1
    35    20    21   ar
    36    20    42    1
    37    21    22   ar
    38    21    24    1
    39    22    23   ar
    40    22    43    1
    41    23    44    1
    42    24    45    1
    43    26    46    1
    44    27    47    1
    45    28    48    1
    46    29    49    1
    47    30    50    1
    48     1    31    1
    49     1    27    1
    50     2    32    1
    51     2    28    1
    52     4    34    1
    53     4    30    1
