@<TRIPOS>MOLECULE
*****
 50 53 0 0 0
SMALL
GASTEIGER

@<TRIPOS>ATOM
     1 C         -0.355643   -1.329244   1.6963 C.3        1 UNL1     0.1889
     2 C         -0.490352   -0.962021   0.193988 C.3        1 UNL1     0.1342
     3 C         -1.935423   -0.901399   -0.324242 C.3        1 UNL1     0.1174
     4 C         -2.847301   -1.937406   0.337788 C.3        1 UNL1     0.1456
     5 C         -2.681081   -1.978031   1.867849 C.3        1 UNL1     0.2326
     6 O         -1.320107   -2.240476   2.202126 O.3        1 UNL1     -0.3076
     7 O         -3.213703   -0.818366   2.533289 O.3        1 UNL1     -0.4605
     8 C         -3.724112   -1.028306   3.801728 C.ar        1 UNL1     0.1310
     9 C         -4.574331   -2.076606   4.169826 C.ar        1 UNL1     0.0226
     10 C         -5.025242   -2.213895   5.488057 C.ar        1 UNL1     0.1343
     11 C         -4.617338   -1.318977   6.476276 C.ar        1 UNL1     0.1007
     12 C         -3.801428   -0.244443   6.112339 C.ar        1 UNL1     0.1389
     13 C         -3.350307   -0.105105   4.786252 C.ar        1 UNL1     0.0229
     14 C         -4.995642   -1.465141   7.900943 C.2        1 UNL1     0.1740
     15 C         -4.290393   -0.548858   8.85729 C.3        1 UNL1     0.0520
     16 C         -4.178116   0.826055   8.21311 C.3        1 UNL1     0.1322
     17 O         -3.427982   0.755111   6.980497 O.3        1 UNL1     -0.4828
     18 C         -5.51384   1.564997   8.101188 C.ar        1 UNL1     -0.0067
     19 C         -5.871864   2.166946   6.877386 C.ar        1 UNL1     -0.0516
     20 C         -7.064021   2.890555   6.754443 C.ar        1 UNL1     -0.0198
     21 C         -7.901234   3.025409   7.847473 C.ar        1 UNL1     0.1169
     22 C         -7.592245   2.415988   9.056593 C.ar        1 UNL1     -0.0198
     23 C         -6.409137   1.676819   9.174657 C.ar        1 UNL1     -0.0516
     24 O         -9.0351   3.769141   7.700464 O.3        1 UNL1     -0.5068
     25 O         -5.771687   -2.324913   8.309637 O.2        1 UNL1     -0.2917
     26 O         -5.853643   -3.257582   5.781408 O.3        1 UNL1     -0.5058
     27 O         -0.206748   -0.200664   2.543014 O.3        1 UNL1     -0.3648
     28 O         0.201867   -1.957188   -0.58266 O.3        1 UNL1     -0.3841
     29 O         -2.451222   0.428216   -0.233638 O.3        1 UNL1     -0.3863
     30 O         -2.545392   -3.244641   -0.1967 O.3        1 UNL1     -0.3829
     31 H         0.589875   -1.872287   1.802031 H        1 UNL1     0.0937
     32 H         0.0   0.0   0.0 H        1 UNL1     0.0671
     33 H         -1.916655   -1.13453   -1.398028 H        1 UNL1     0.0649
     34 H         -3.893951   -1.725013   0.093221 H        1 UNL1     0.0683
     35 H         -3.260088   -2.858475   2.173541 H        1 UNL1     0.1085
     36 H         -4.882313   -2.836902   3.460448 H        1 UNL1     0.0691
     37 H         -2.716762   0.740829   4.528357 H        1 UNL1     0.0691
     38 H         -3.300765   -0.974443   9.054879 H        1 UNL1     0.0385
     39 H         -4.844911   -0.519702   9.80145 H        1 UNL1     0.0385
     40 H         -3.558489   1.444654   8.876372 H        1 UNL1     0.0789
     41 H         -5.227315   2.083365   6.007202 H        1 UNL1     0.0623
     42 H         -7.323201   3.360101   5.808735 H        1 UNL1     0.0654
     43 H         -8.248088   2.502585   9.914661 H        1 UNL1     0.0654
     44 H         -6.204496   1.205331   10.131039 H        1 UNL1     0.0623
     45 H         -8.778273   4.681611   7.490331 H        1 UNL1     0.2921
     46 H         -5.464386   -3.78931   6.493557 H        1 UNL1     0.2922
     47 H         0.544274   0.336981   2.255327 H        1 UNL1     0.2126
     48 H         1.146094   -1.893061   -0.341715 H        1 UNL1     0.2101
     49 H         -2.007038   0.999292   -0.880451 H        1 UNL1     0.2100
     50 H         -2.793859   -3.247671   -1.144312 H        1 UNL1     0.2102
@<TRIPOS>BOND
     1     1     2    1
     2     1     6    1
     3     2     3    1
     4     3     4    1
     5     3    29    1
     6     3    33    1
     7     4     5    1
     8     5     6    1
     9     5     7    1
    10     5    35    1
    11     7     8    1
    12     8     9   ar
    13     8    13   ar
    14     9    10   ar
    15     9    36    1
    16    10    11   ar
    17    10    26    1
    18    11    12   ar
    19    11    14    1
    20    12    13   ar
    21    12    17    1
    22    13    37    1
    23    14    15    1
    24    14    25    2
    25    15    16    1
    26    15    38    1
    27    15    39    1
    28    16    17    1
    29    16    18    1
    30    16    40    1
    31    18    19   ar
    32    18    23   ar
    33    19    20   ar
    34    19    41    1
    35    20    21   ar
    36    20    42    1
    37    21    22   ar
    38    21    24    1
    39    22    23   ar
    40    22    43    1
    41    23    44    1
    42    24    45    1
    43    26    46    1
    44    27    47    1
    45    28    48    1
    46    29    49    1
    47    30    50    1
    48     1    31    1
    49     1    27    1
    50     2    32    1
    51     2    28    1
    52     4    34    1
    53     4    30    1
