@<TRIPOS>MOLECULE
*****
 50 53 0 0 0
SMALL
GASTEIGER

@<TRIPOS>ATOM
     1 C         -0.349141   -1.337941   1.690804 C.3        1 UNL1     0.1889
     2 C         -0.470964   -0.973064   0.186821 C.3        1 UNL1     0.1342
     3 C         -1.909578   -0.945139   -0.351765 C.3        1 UNL1     0.1174
     4 C         -2.806837   -2.002043   0.297077 C.3        1 UNL1     0.1456
     5 C         -2.66136   -2.039704   1.829325 C.3        1 UNL1     0.2326
     6 O         -1.299609   -2.271215   2.182743 O.3        1 UNL1     -0.3076
     7 O         -3.229651   -0.892856   2.487434 O.3        1 UNL1     -0.4605
     8 C         -3.753001   -1.115082   3.748485 C.ar        1 UNL1     0.1310
     9 C         -4.584192   -2.182706   4.104294 C.ar        1 UNL1     0.0226
     10 C         -5.050425   -2.33097   5.41599 C.ar        1 UNL1     0.1343
     11 C         -4.677046   -1.427521   6.410077 C.ar        1 UNL1     0.1007
     12 C         -3.880809   -0.334454   6.05795 C.ar        1 UNL1     0.1389
     13 C         -3.414301   -0.184133   4.738403 C.ar        1 UNL1     0.0229
     14 C         -5.072   -1.583058   7.829222 C.2        1 UNL1     0.1740
     15 C         -4.40142   -0.65145   8.795647 C.3        1 UNL1     0.0520
     16 C         -4.311458   0.72602   8.15343 C.3        1 UNL1     0.1322
     17 O         -3.542567   0.672883   6.931524 O.3        1 UNL1     -0.4828
     18 C         -5.661983   1.43436   8.022809 C.ar        1 UNL1     -0.0067
     19 C         -6.022703   2.015703   6.789872 C.ar        1 UNL1     -0.0516
     20 C         -7.229271   2.711742   6.64957 C.ar        1 UNL1     -0.0198
     21 C         -8.078421   2.83948   7.734215 C.ar        1 UNL1     0.1169
     22 C         -7.766436   2.249442   8.952147 C.ar        1 UNL1     -0.0198
     23 C         -6.568533   1.537599   9.087658 C.ar        1 UNL1     -0.0516
     24 O         -9.22695   3.556665   7.570118 O.3        1 UNL1     -0.5068
     25 O         -5.833919   -2.460535   8.226714 O.2        1 UNL1     -0.2917
     26 O         -5.858856   -3.393444   5.697368 O.3        1 UNL1     -0.5058
     27 O         -0.238011   -0.206723   2.539793 O.3        1 UNL1     -0.3648
     28 O         0.254684   -1.951753   -0.580192 O.3        1 UNL1     -0.3841
     29 O         -2.456811   0.372313   -0.26816 O.3        1 UNL1     -0.3863
     30 O         -2.467659   -3.301756   -0.233387 O.3        1 UNL1     -0.3829
     31 H         0.606934   -1.859331   1.809764 H        1 UNL1     0.0937
     32 H         0.0   0.0   0.0 H        1 UNL1     0.0671
     33 H         -1.870331   -1.177192   -1.425232 H        1 UNL1     0.0649
     34 H         -3.854503   -1.813448   0.037791 H        1 UNL1     0.0683
     35 H         -3.224386   -2.933295   2.126605 H        1 UNL1     0.1085
     36 H         -4.864695   -2.949441   3.390462 H        1 UNL1     0.0691
     37 H         -2.796644   0.676175   4.489678 H        1 UNL1     0.0691
     38 H         -3.405228   -1.054455   9.007107 H        1 UNL1     0.0385
     39 H         -4.969738   -0.63547   9.731883 H        1 UNL1     0.0385
     40 H         -3.715538   1.35823   8.825522 H        1 UNL1     0.0789
     41 H         -5.369164   1.937299   5.925933 H        1 UNL1     0.0623
     42 H         -7.490635   3.165747   5.6969 H        1 UNL1     0.0654
     43 H         -8.431229   2.330489   9.803846 H        1 UNL1     0.0654
     44 H         -6.361741   1.08057   10.050574 H        1 UNL1     0.0623
     45 H         -8.988312   4.472326   7.352557 H        1 UNL1     0.2921
     46 H         -5.467664   -3.916543   6.414827 H        1 UNL1     0.2922
     47 H         0.504535   0.348073   2.262869 H        1 UNL1     0.2126
     48 H         1.193705   -1.866235   -0.325911 H        1 UNL1     0.2101
     49 H         -2.016683   0.953728   -0.908502 H        1 UNL1     0.2100
     50 H         -2.702585   -3.309934   -1.184416 H        1 UNL1     0.2102
@<TRIPOS>BOND
     1     1     2    1
     2     1     6    1
     3     2     3    1
     4     3     4    1
     5     3    29    1
     6     3    33    1
     7     4     5    1
     8     5     6    1
     9     5     7    1
    10     5    35    1
    11     7     8    1
    12     8     9   ar
    13     8    13   ar
    14     9    10   ar
    15     9    36    1
    16    10    11   ar
    17    10    26    1
    18    11    12   ar
    19    11    14    1
    20    12    13   ar
    21    12    17    1
    22    13    37    1
    23    14    15    1
    24    14    25    2
    25    15    16    1
    26    15    38    1
    27    15    39    1
    28    16    17    1
    29    16    18    1
    30    16    40    1
    31    18    19   ar
    32    18    23   ar
    33    19    20   ar
    34    19    41    1
    35    20    21   ar
    36    20    42    1
    37    21    22   ar
    38    21    24    1
    39    22    23   ar
    40    22    43    1
    41    23    44    1
    42    24    45    1
    43    26    46    1
    44    27    47    1
    45    28    48    1
    46    29    49    1
    47    30    50    1
    48     1    31    1
    49     1    27    1
    50     2    32    1
    51     2    28    1
    52     4    34    1
    53     4    30    1
