@<TRIPOS>MOLECULE
*****
 50 53 0 0 0
SMALL
GASTEIGER

@<TRIPOS>ATOM
     1 C         2.077579   0.622332   -0.259175 C.3        1 UNL1     0.1889
     2 C         0.892437   -0.340302   -0.539734 C.3        1 UNL1     0.1342
     3 C         1.162576   -1.810477   -0.184665 C.3        1 UNL1     0.1174
     4 C         2.614762   -2.224443   -0.435477 C.3        1 UNL1     0.1456
     5 C         3.623955   -1.201241   0.116749 C.3        1 UNL1     0.2326
     6 O         3.376334   0.081987   -0.453231 O.3        1 UNL1     -0.3076
     7 O         3.689118   -1.178858   1.554307 O.3        1 UNL1     -0.4605
     8 C         4.311291   -0.078372   2.115877 C.ar        1 UNL1     0.1310
     9 C         4.719975   0.028576   3.449609 C.ar        1 UNL1     0.0226
     10 C         5.359409   1.181568   3.92039 C.ar        1 UNL1     0.1343
     11 C         5.627275   2.247194   3.062176 C.ar        1 UNL1     0.1007
     12 C         5.187295   2.168689   1.738152 C.ar        1 UNL1     0.1389
     13 C         4.542011   1.010323   1.265683 C.ar        1 UNL1     0.0229
     14 C         6.374093   3.454245   3.485783 C.2        1 UNL1     0.1740
     15 C         6.765615   4.395258   2.384532 C.3        1 UNL1     0.0520
     16 C         5.607372   4.494898   1.401424 C.3        1 UNL1     0.1322
     17 O         5.301776   3.200988   0.836199 O.3        1 UNL1     -0.4828
     18 C         4.394668   5.248918   1.952358 C.ar        1 UNL1     -0.0067
     19 C         4.480745   5.870555   3.215043 C.ar        1 UNL1     -0.0516
     20 C         3.37565   6.527725   3.768987 C.ar        1 UNL1     -0.0198
     21 C         2.179421   6.563865   3.075042 C.ar        1 UNL1     0.1169
     22 C         2.073271   5.989837   1.814858 C.ar        1 UNL1     -0.0198
     23 C         3.183539   5.34855   1.25262 C.ar        1 UNL1     -0.0516
     24 O         1.114015   7.180221   3.662763 O.3        1 UNL1     -0.5068
     25 O         6.732271   3.656187   4.643114 O.2        1 UNL1     -0.2917
     26 O         5.731785   1.223005   5.232336 O.3        1 UNL1     -0.5058
     27 O         1.972859   1.301177   0.982192 O.3        1 UNL1     -0.3648
     28 O         0.585661   -0.288491   -1.945405 O.3        1 UNL1     -0.3841
     29 O         0.726568   -2.099284   1.14523 O.3        1 UNL1     -0.3863
     30 O         2.828225   -2.366226   -1.856751 O.3        1 UNL1     -0.3829
     31 H         2.017292   1.419364   -1.008297 H        1 UNL1     0.0937
     32 H         0.0   0.0   0.0 H        1 UNL1     0.0671
     33 H         0.536935   -2.433833   -0.83867 H        1 UNL1     0.0649
     34 H         2.808038   -3.203412   0.016921 H        1 UNL1     0.0683
     35 H         4.589574   -1.543704   -0.275906 H        1 UNL1     0.1085
     36 H         4.590884   -0.786977   4.152694 H        1 UNL1     0.0691
     37 H         4.208242   0.974601   0.230881 H        1 UNL1     0.0691
     38 H         7.659499   3.986269   1.901599 H        1 UNL1     0.0385
     39 H         7.025404   5.366985   2.818162 H        1 UNL1     0.0385
     40 H         5.957437   5.091489   0.548163 H        1 UNL1     0.0789
     41 H         5.40583   5.848341   3.783704 H        1 UNL1     0.0623
     42 H         3.451158   6.992987   4.748701 H        1 UNL1     0.0654
     43 H         1.145601   6.02533   1.256219 H        1 UNL1     0.0654
     44 H         3.067955   4.920166   0.261674 H        1 UNL1     0.0623
     45 H         0.633855   6.523533   4.192784 H        1 UNL1     0.2921
     46 H         5.620855   2.12516   5.571779 H        1 UNL1     0.2922
     47 H         2.143001   2.245949   0.862544 H        1 UNL1     0.2126
     48 H         0.158996   -1.13774   -2.170049 H        1 UNL1     0.2101
     49 H         0.039661   -2.784541   1.125825 H        1 UNL1     0.2100
     50 H         2.229111   -3.069335   -2.18296 H        1 UNL1     0.2102
@<TRIPOS>BOND
     1     1     2    1
     2     1     6    1
     3     2     3    1
     4     3     4    1
     5     3    29    1
     6     3    33    1
     7     4     5    1
     8     5     6    1
     9     5     7    1
    10     5    35    1
    11     7     8    1
    12     8     9   ar
    13     8    13   ar
    14     9    10   ar
    15     9    36    1
    16    10    11   ar
    17    10    26    1
    18    11    12   ar
    19    11    14    1
    20    12    13   ar
    21    12    17    1
    22    13    37    1
    23    14    15    1
    24    14    25    2
    25    15    16    1
    26    15    38    1
    27    15    39    1
    28    16    17    1
    29    16    18    1
    30    16    40    1
    31    18    19   ar
    32    18    23   ar
    33    19    20   ar
    34    19    41    1
    35    20    21   ar
    36    20    42    1
    37    21    22   ar
    38    21    24    1
    39    22    23   ar
    40    22    43    1
    41    23    44    1
    42    24    45    1
    43    26    46    1
    44    27    47    1
    45    28    48    1
    46    29    49    1
    47    30    50    1
    48     1    31    1
    49     1    27    1
    50     2    32    1
    51     2    28    1
    52     4    34    1
    53     4    30    1
