@<TRIPOS>MOLECULE
*****
 50 53 0 0 0
SMALL
GASTEIGER

@<TRIPOS>ATOM
     1 C         -0.424206   0.873326   1.956567 C.3        1 UNL1     0.1889
     2 C         0.428235   0.761091   0.664016 C.3        1 UNL1     0.1342
     3 C         1.912427   0.442083   0.900387 C.3        1 UNL1     0.1174
     4 C         2.462063   1.085899   2.175738 C.3        1 UNL1     0.1456
     5 C         1.529576   0.88977   3.385021 C.3        1 UNL1     0.2326
     6 O         0.236345   1.413521   3.091581 O.3        1 UNL1     -0.3076
     7 O         1.494928   -0.465428   3.868299 O.3        1 UNL1     -0.4605
     8 C         2.090793   -0.686288   5.096995 C.ar        1 UNL1     0.1310
     9 C         1.847584   0.052316   6.260014 C.ar        1 UNL1     0.0226
     10 C         2.490059   -0.260765   7.463803 C.ar        1 UNL1     0.1343
     11 C         3.374257   -1.336078   7.539544 C.ar        1 UNL1     0.1007
     12 C         3.656339   -2.055454   6.375193 C.ar        1 UNL1     0.1389
     13 C         3.01221   -1.738799   5.164302 C.ar        1 UNL1     0.0229
     14 C         4.016475   -1.763053   8.804218 C.2        1 UNL1     0.1740
     15 C         4.757615   -3.066559   8.748244 C.3        1 UNL1     0.0520
     16 C         5.507494   -3.13799   7.425166 C.3        1 UNL1     0.1322
     17 O         4.590507   -3.063185   6.31134 O.3        1 UNL1     -0.4828
     18 C         6.693458   -2.1745   7.336281 C.ar        1 UNL1     -0.0067
     19 C         7.887799   -2.481374   8.020088 C.ar        1 UNL1     -0.0516
     20 C         8.974801   -1.599372   7.998542 C.ar        1 UNL1     -0.0198
     21 C         8.877591   -0.406627   7.304469 C.ar        1 UNL1     0.1169
     22 C         7.726693   -0.091758   6.593744 C.ar        1 UNL1     -0.0198
     23 C         6.646232   -0.982051   6.599919 C.ar        1 UNL1     -0.0516
     24 O         9.942853   0.44457   7.337332 O.3        1 UNL1     -0.5068
     25 O         3.898489   -1.151195   9.86261 O.2        1 UNL1     -0.2917
     26 O         2.209822   0.499379   8.561635 O.3        1 UNL1     -0.5058
     27 O         -1.125647   -0.317675   2.276386 O.3        1 UNL1     -0.3648
     28 O         0.366265   2.018794   -0.033872 O.3        1 UNL1     -0.3841
     29 O         2.14265   -0.967324   0.848399 O.3        1 UNL1     -0.3863
     30 O         2.641143   2.501459   1.952556 O.3        1 UNL1     -0.3829
     31 H         -1.213752   1.603576   1.748163 H        1 UNL1     0.0937
     32 H         0.0   0.0   0.0 H        1 UNL1     0.0671
     33 H         2.483579   0.86218   0.06073 H        1 UNL1     0.0649
     34 H         3.448843   0.670798   2.408885 H        1 UNL1     0.0683
     35 H         1.964847   1.531278   4.161478 H        1 UNL1     0.1085
     36 H         1.129282   0.864577   6.279887 H        1 UNL1     0.0691
     37 H         3.250035   -2.31345   4.271717 H        1 UNL1     0.0691
     38 H         4.018863   -3.871231   8.827465 H        1 UNL1     0.0385
     39 H         5.430639   -3.134073   9.609789 H        1 UNL1     0.0385
     40 H         5.944007   -4.143457   7.354363 H        1 UNL1     0.0789
     41 H         7.985869   -3.407046   8.579699 H        1 UNL1     0.0623
     42 H         9.886083   -1.841874   8.539623 H        1 UNL1     0.0654
     43 H         7.645408   0.832665   6.034507 H        1 UNL1     0.0654
     44 H         5.766635   -0.708788   6.025045 H        1 UNL1     0.0623
     45 H         10.483099   0.290478   6.545431 H        1 UNL1     0.2921
     46 H         3.019754   0.630775   9.079473 H        1 UNL1     0.2922
     47 H         -1.841635   -0.464981   1.642729 H        1 UNL1     0.2126
     48 H         0.980117   1.94949   -0.790255 H        1 UNL1     0.2101
     49 H         1.675532   -1.405135   1.577725 H        1 UNL1     0.2100
     50 H         2.966594   2.623485   1.036639 H        1 UNL1     0.2102
@<TRIPOS>BOND
     1     1     2    1
     2     1     6    1
     3     2     3    1
     4     3     4    1
     5     3    29    1
     6     3    33    1
     7     4     5    1
     8     5     6    1
     9     5     7    1
    10     5    35    1
    11     7     8    1
    12     8     9   ar
    13     8    13   ar
    14     9    10   ar
    15     9    36    1
    16    10    11   ar
    17    10    26    1
    18    11    12   ar
    19    11    14    1
    20    12    13   ar
    21    12    17    1
    22    13    37    1
    23    14    15    1
    24    14    25    2
    25    15    16    1
    26    15    38    1
    27    15    39    1
    28    16    17    1
    29    16    18    1
    30    16    40    1
    31    18    19   ar
    32    18    23   ar
    33    19    20   ar
    34    19    41    1
    35    20    21   ar
    36    20    42    1
    37    21    22   ar
    38    21    24    1
    39    22    23   ar
    40    22    43    1
    41    23    44    1
    42    24    45    1
    43    26    46    1
    44    27    47    1
    45    28    48    1
    46    29    49    1
    47    30    50    1
    48     1    31    1
    49     1    27    1
    50     2    32    1
    51     2    28    1
    52     4    34    1
    53     4    30    1
