@<TRIPOS>MOLECULE
*****
 50 53 0 0 0
SMALL
GASTEIGER

@<TRIPOS>ATOM
     1 C         -0.084976   -1.078513   1.89747 C.3        1 UNL1     0.1889
     2 C         -0.562069   -0.832667   0.440802 C.3        1 UNL1     0.1342
     3 C         -2.066066   -0.553735   0.297085 C.3        1 UNL1     0.1174
     4 C         -2.913766   -1.337697   1.302037 C.3        1 UNL1     0.1456
     5 C         -2.348842   -1.267269   2.732514 C.3        1 UNL1     0.2326
     6 O         -1.005588   -1.74505   2.748703 O.3        1 UNL1     -0.3076
     7 O         -2.496411   0.02719   3.344003 O.3        1 UNL1     -0.4605
     8 C         -2.675111   0.03284   4.715704 C.ar        1 UNL1     0.1310
     9 C         -3.548529   -0.800714   5.422549 C.ar        1 UNL1     0.0226
     10 C         -3.646004   -0.730516   6.817351 C.ar        1 UNL1     0.1343
     11 C         -2.854208   0.159376   7.541914 C.ar        1 UNL1     0.1007
     12 C         -2.008209   1.025362   6.843962 C.ar        1 UNL1     0.1389
     13 C         -1.912316   0.956411   5.441293 C.ar        1 UNL1     0.0229
     14 C         -2.855554   0.21711   9.022056 C.2        1 UNL1     0.1740
     15 C         -1.786225   1.069632   9.639543 C.3        1 UNL1     0.0520
     16 C         -1.637405   2.334828   8.805824 C.3        1 UNL1     0.1322
     17 O         -1.264982   2.01305   7.447579 O.3        1 UNL1     -0.4828
     18 C         -2.822183   3.296135   8.927946 C.ar        1 UNL1     -0.0067
     19 C         -2.835871   4.479346   8.161109 C.ar        1 UNL1     -0.0516
     20 C         -3.880866   5.402856   8.283895 C.ar        1 UNL1     -0.0198
     21 C         -4.911936   5.158802   9.173366 C.ar        1 UNL1     0.1169
     22 C         -4.943508   3.986758   9.917781 C.ar        1 UNL1     -0.0198
     23 C         -3.908054   3.054362   9.781659 C.ar        1 UNL1     -0.0516
     24 O         -5.892888   6.098851   9.29354 O.3        1 UNL1     -0.5068
     25 O         -3.618184   -0.442113   9.723701 O.2        1 UNL1     -0.2917
     26 O         -4.517955   -1.570455   7.446469 O.3        1 UNL1     -0.5058
     27 O         0.459328   0.076142   2.516576 O.3        1 UNL1     -0.3648
     28 O         -0.267472   -2.005948   -0.339794 O.3        1 UNL1     -0.3841
     29 O         -2.32667   0.850946   0.330061 O.3        1 UNL1     -0.3863
     30 O         -2.972869   -2.721794   0.89403 O.3        1 UNL1     -0.3829
     31 H         0.758414   -1.775022   1.837071 H        1 UNL1     0.0937
     32 H         0.0   0.0   0.0 H        1 UNL1     0.0671
     33 H         -2.374192   -0.884207   -0.704697 H        1 UNL1     0.0649
     34 H         -3.941782   -0.958776   1.300121 H        1 UNL1     0.0683
     35 H         -2.952414   -1.993429   3.291326 H        1 UNL1     0.1085
     36 H         -4.14972   -1.552014   4.922311 H        1 UNL1     0.0691
     37 H         -1.246995   1.642416   4.921449 H        1 UNL1     0.0691
     38 H         -0.858747   0.487135   9.642382 H        1 UNL1     0.0385
     39 H         -2.056338   1.287733   10.678413 H        1 UNL1     0.0385
     40 H         -0.774322   2.885278   9.204087 H        1 UNL1     0.0789
     41 H         -2.033544   4.698398   7.462583 H        1 UNL1     0.0623
     42 H         -3.873975   6.317229   7.695773 H        1 UNL1     0.0654
     43 H         -5.753828   3.778558   10.606218 H        1 UNL1     0.0654
     44 H         -3.970347   2.144601   10.37098 H        1 UNL1     0.0623
     45 H         -5.492148   6.920059   9.621779 H        1 UNL1     0.2921
     46 H         -4.044422   -2.082111   8.121292 H        1 UNL1     0.2922
     47 H         1.171014   0.443112   1.973715 H        1 UNL1     0.2126
     48 H         0.704887   -2.095702   -0.353763 H        1 UNL1     0.2101
     49 H         -1.991399   1.267888   -0.479597 H        1 UNL1     0.2100
     50 H         -3.465398   -2.76607   0.048354 H        1 UNL1     0.2102
@<TRIPOS>BOND
     1     1     2    1
     2     1     6    1
     3     2     3    1
     4     3     4    1
     5     3    29    1
     6     3    33    1
     7     4     5    1
     8     5     6    1
     9     5     7    1
    10     5    35    1
    11     7     8    1
    12     8     9   ar
    13     8    13   ar
    14     9    10   ar
    15     9    36    1
    16    10    11   ar
    17    10    26    1
    18    11    12   ar
    19    11    14    1
    20    12    13   ar
    21    12    17    1
    22    13    37    1
    23    14    15    1
    24    14    25    2
    25    15    16    1
    26    15    38    1
    27    15    39    1
    28    16    17    1
    29    16    18    1
    30    16    40    1
    31    18    19   ar
    32    18    23   ar
    33    19    20   ar
    34    19    41    1
    35    20    21   ar
    36    20    42    1
    37    21    22   ar
    38    21    24    1
    39    22    23   ar
    40    22    43    1
    41    23    44    1
    42    24    45    1
    43    26    46    1
    44    27    47    1
    45    28    48    1
    46    29    49    1
    47    30    50    1
    48     1    31    1
    49     1    27    1
    50     2    32    1
    51     2    28    1
    52     4    34    1
    53     4    30    1
