@<TRIPOS>MOLECULE
*****
 50 53 0 0 0
SMALL
GASTEIGER

@<TRIPOS>ATOM
     1 C         -0.29112   -1.361299   1.683128 C.3        1 UNL1     0.1889
     2 C         -0.452767   -0.981713   0.186557 C.3        1 UNL1     0.1342
     3 C         -1.903684   -0.968518   -0.318548 C.3        1 UNL1     0.1174
     4 C         -2.770741   -2.045247   0.338707 C.3        1 UNL1     0.1456
     5 C         -2.589406   -2.097641   1.866692 C.3        1 UNL1     0.2326
     6 O         -1.216731   -2.313459   2.186149 O.3        1 UNL1     -0.3076
     7 O         -3.158452   -0.966361   2.550587 O.3        1 UNL1     -0.4605
     8 C         -3.64252   -1.208242   3.823654 C.ar        1 UNL1     0.1310
     9 C         -4.445222   -2.292985   4.192848 C.ar        1 UNL1     0.0226
     10 C         -4.872044   -2.460365   5.515614 C.ar        1 UNL1     0.1343
     11 C         -4.486409   -1.559092   6.506993 C.ar        1 UNL1     0.1007
     12 C         -3.71897   -0.449544   6.142679 C.ar        1 UNL1     0.1389
     13 C         -3.292129   -0.280036   4.812076 C.ar        1 UNL1     0.0229
     14 C         -4.838863   -1.73343   7.935116 C.2        1 UNL1     0.1740
     15 C         -4.157437   -0.798656   8.890838 C.3        1 UNL1     0.0520
     16 C         -4.108824   0.585554   8.258733 C.3        1 UNL1     0.1322
     17 O         -3.373583   0.556016   7.015504 O.3        1 UNL1     -0.4828
     18 C         -5.474287   1.271643   8.172045 C.ar        1 UNL1     -0.0067
     19 C         -5.8803   1.854686   6.954085 C.ar        1 UNL1     -0.0516
     20 C         -7.101962   2.530988   6.853481 C.ar        1 UNL1     -0.0198
     21 C         -7.921361   2.637282   7.963037 C.ar        1 UNL1     0.1169
     22 C         -7.564344   2.044813   9.167345 C.ar        1 UNL1     -0.0198
     23 C         -6.351216   1.352593   9.263301 C.ar        1 UNL1     -0.0516
     24 O         -9.086061   3.335865   7.83712 O.3        1 UNL1     -0.5068
     25 O         -5.57439   -2.627222   8.345752 O.2        1 UNL1     -0.2917
     26 O         -5.654165   -3.538935   5.809822 O.3        1 UNL1     -0.5058
     27 O         -0.176366   -0.237994   2.542083 O.3        1 UNL1     -0.3648
     28 O         0.268694   -1.941409   -0.607913 O.3        1 UNL1     -0.3841
     29 O         -2.46735   0.339949   -0.207522 O.3        1 UNL1     -0.3863
     30 O         -2.425622   -3.334058   -0.214059 O.3        1 UNL1     -0.3829
     31 H         0.6747   -1.870193   1.774228 H        1 UNL1     0.0937
     32 H         0.0   0.0   0.0 H        1 UNL1     0.0671
     33 H         -1.885969   -1.188183   -1.395188 H        1 UNL1     0.0649
     34 H         -3.826668   -1.868867   0.105664 H        1 UNL1     0.0683
     35 H         -3.13277   -3.002428   2.166682 H        1 UNL1     0.1085
     36 H         -4.732519   -3.058349   3.480248 H        1 UNL1     0.0691
     37 H         -2.696339   0.592847   4.553998 H        1 UNL1     0.0691
     38 H         -3.149035   -1.186247   9.070912 H        1 UNL1     0.0385
     39 H         -4.699564   -0.800395   9.842612 H        1 UNL1     0.0385
     40 H         -3.505163   1.222198   8.919641 H        1 UNL1     0.0789
     41 H         -5.250837   1.792971   6.071124 H        1 UNL1     0.0623
     42 H         -7.398414   2.9866   5.911916 H        1 UNL1     0.0654
     43 H         -8.205454   2.109057   10.038414 H        1 UNL1     0.0654
     44 H         -6.108958   0.892962   10.216661 H        1 UNL1     0.0623
     45 H         -8.870431   4.249443   7.588936 H        1 UNL1     0.2921
     46 H         -5.233589   -4.062051   6.510448 H        1 UNL1     0.2922
     47 H         0.557796   0.325405   2.26022 H        1 UNL1     0.2126
     48 H         1.206466   -1.874857   -0.34355 H        1 UNL1     0.2101
     49 H         -2.044414   0.936683   -0.845352 H        1 UNL1     0.2100
     50 H         -2.677126   -3.333177   -1.160874 H        1 UNL1     0.2102
@<TRIPOS>BOND
     1     1     2    1
     2     1     6    1
     3     2     3    1
     4     3     4    1
     5     3    29    1
     6     3    33    1
     7     4     5    1
     8     5     6    1
     9     5     7    1
    10     5    35    1
    11     7     8    1
    12     8     9   ar
    13     8    13   ar
    14     9    10   ar
    15     9    36    1
    16    10    11   ar
    17    10    26    1
    18    11    12   ar
    19    11    14    1
    20    12    13   ar
    21    12    17    1
    22    13    37    1
    23    14    15    1
    24    14    25    2
    25    15    16    1
    26    15    38    1
    27    15    39    1
    28    16    17    1
    29    16    18    1
    30    16    40    1
    31    18    19   ar
    32    18    23   ar
    33    19    20   ar
    34    19    41    1
    35    20    21   ar
    36    20    42    1
    37    21    22   ar
    38    21    24    1
    39    22    23   ar
    40    22    43    1
    41    23    44    1
    42    24    45    1
    43    26    46    1
    44    27    47    1
    45    28    48    1
    46    29    49    1
    47    30    50    1
    48     1    31    1
    49     1    27    1
    50     2    32    1
    51     2    28    1
    52     4    34    1
    53     4    30    1
