@<TRIPOS>MOLECULE
*****
 50 53 0 0 0
SMALL
GASTEIGER

@<TRIPOS>ATOM
     1 C         1.098569   1.425801   1.237352 C.3        1 UNL1     0.1889
     2 C         1.043224   0.227536   0.25194 C.3        1 UNL1     0.1342
     3 C         1.726776   -1.051639   0.758824 C.3        1 UNL1     0.1174
     4 C         2.965457   -0.764806   1.611181 C.3        1 UNL1     0.1456
     5 C         2.716104   0.329239   2.665341 C.3        1 UNL1     0.2326
     6 O         2.273346   1.525728   2.02875 O.3        1 UNL1     -0.3076
     7 O         1.854102   -0.093614   3.737474 O.3        1 UNL1     -0.4605
     8 C         1.008578   -1.151179   3.454325 C.ar        1 UNL1     0.1310
     9 C         0.171004   -1.788293   4.376202 C.ar        1 UNL1     0.0226
     10 C         -0.663834   -2.842684   3.98735 C.ar        1 UNL1     0.1343
     11 C         -0.698868   -3.27025   2.660775 C.ar        1 UNL1     0.1007
     12 C         0.162996   -2.669083   1.739594 C.ar        1 UNL1     0.1389
     13 C         1.004254   -1.610683   2.13139 C.ar        1 UNL1     0.0229
     14 C         -1.622435   -4.32296   2.178097 C.2        1 UNL1     0.1740
     15 C         -1.68414   -4.499798   0.689316 C.3        1 UNL1     0.0520
     16 C         -0.272955   -4.378772   0.130865 C.3        1 UNL1     0.1322
     17 O         0.288988   -3.082796   0.433748 O.3        1 UNL1     -0.4828
     18 C         0.632804   -5.561097   0.483613 C.ar        1 UNL1     -0.0067
     19 C         0.81745   -6.596413   -0.455663 C.ar        1 UNL1     -0.0516
     20 C         1.601086   -7.71478   -0.147229 C.ar        1 UNL1     -0.0198
     21 C         2.198045   -7.812926   1.096891 C.ar        1 UNL1     0.1169
     22 C         2.062171   -6.793975   2.030763 C.ar        1 UNL1     -0.0198
     23 C         1.293696   -5.666884   1.715858 C.ar        1 UNL1     -0.0516
     24 O         2.922859   -8.934369   1.375119 O.3        1 UNL1     -0.5068
     25 O         -2.359778   -4.967338   2.919438 O.2        1 UNL1     -0.2917
     26 O         -1.455657   -3.422269   4.935339 O.3        1 UNL1     -0.5058
     27 O         -0.075022   1.567285   2.021861 O.3        1 UNL1     -0.3648
     28 O         1.702549   0.610456   -0.969276 O.3        1 UNL1     -0.3841
     29 O         0.786267   -1.902059   1.417886 O.3        1 UNL1     -0.3863
     30 O         4.045384   -0.342345   0.750383 O.3        1 UNL1     -0.3829
     31 H         1.124506   2.333636   0.624783 H        1 UNL1     0.0937
     32 H         0.0   -0.0   0.0 H        1 UNL1     0.0671
     33 H         2.068778   -1.619089   -0.117964 H        1 UNL1     0.0649
     34 H         3.294993   -1.681621   2.112436 H        1 UNL1     0.0683
     35 H         3.713448   0.535434   3.073588 H        1 UNL1     0.1085
     36 H         0.11097   -1.465796   5.409891 H        1 UNL1     0.0691
     37 H         1.666661   -1.160197   1.395338 H        1 UNL1     0.0691
     38 H         -2.335764   -3.715599   0.289385 H        1 UNL1     0.0385
     39 H         -2.13769   -5.470488   0.46165 H        1 UNL1     0.0385
     40 H         -0.355913   -4.39289   -0.964324 H        1 UNL1     0.0789
     41 H         0.352046   -6.547334   -1.435786 H        1 UNL1     0.0623
     42 H         1.726148   -8.512101   -0.875687 H        1 UNL1     0.0654
     43 H         2.537636   -6.853639   3.002505 H        1 UNL1     0.0654
     44 H         1.217682   -4.88508   2.465425 H        1 UNL1     0.0623
     45 H         3.478627   -9.139061   0.605743 H        1 UNL1     0.2921
     46 H         -1.602018   -2.795851   5.661694 H        1 UNL1     0.2922
     47 H         -0.000774   1.044814   2.832645 H        1 UNL1     0.2126
     48 H         1.736779   1.586434   -0.974498 H        1 UNL1     0.2101
     49 H         0.309598   -1.401519   2.09909 H        1 UNL1     0.2100
     50 H         4.857779   -0.280064   1.294303 H        1 UNL1     0.2102
@<TRIPOS>BOND
     1     1     2    1
     2     1     6    1
     3     2     3    1
     4     3     4    1
     5     3    29    1
     6     3    33    1
     7     4     5    1
     8     5     6    1
     9     5     7    1
    10     5    35    1
    11     7     8    1
    12     8     9   ar
    13     8    13   ar
    14     9    10   ar
    15     9    36    1
    16    10    11   ar
    17    10    26    1
    18    11    12   ar
    19    11    14    1
    20    12    13   ar
    21    12    17    1
    22    13    37    1
    23    14    15    1
    24    14    25    2
    25    15    16    1
    26    15    38    1
    27    15    39    1
    28    16    17    1
    29    16    18    1
    30    16    40    1
    31    18    19   ar
    32    18    23   ar
    33    19    20   ar
    34    19    41    1
    35    20    21   ar
    36    20    42    1
    37    21    22   ar
    38    21    24    1
    39    22    23   ar
    40    22    43    1
    41    23    44    1
    42    24    45    1
    43    26    46    1
    44    27    47    1
    45    28    48    1
    46    29    49    1
    47    30    50    1
    48     1    31    1
    49     1    27    1
    50     2    32    1
    51     2    28    1
    52     4    34    1
    53     4    30    1
