@<TRIPOS>MOLECULE
*****
 50 53 0 0 0
SMALL
GASTEIGER

@<TRIPOS>ATOM
     1 C         -2.167571   -0.235363   -0.130558 C.3        1 UNL1     0.1889
     2 C         -0.781251   0.049092   -0.768635 C.3        1 UNL1     0.1342
     3 C         -0.677429   1.39435   -1.50346 C.3        1 UNL1     0.1174
     4 C         -1.982034   1.79379   -2.197413 C.3        1 UNL1     0.1456
     5 C         -3.212355   1.614991   -1.28928 C.3        1 UNL1     0.2326
     6 O         -3.292066   0.264483   -0.839119 O.3        1 UNL1     -0.3076
     7 O         -3.277971   2.573459   -0.217667 O.3        1 UNL1     -0.4605
     8 C         -4.547711   2.937545   0.193102 C.ar        1 UNL1     0.1310
     9 C         -5.608765   3.272704   -0.654916 C.ar        1 UNL1     0.0226
     10 C         -6.866138   3.612249   -0.141471 C.ar        1 UNL1     0.1343
     11 C         -7.099774   3.601739   1.232991 C.ar        1 UNL1     0.1007
     12 C         -6.036867   3.308632   2.091536 C.ar        1 UNL1     0.1389
     13 C         -4.771971   2.969829   1.575124 C.ar        1 UNL1     0.0229
     14 C         -8.430421   3.870419   1.825734 C.2        1 UNL1     0.1740
     15 C         -8.553011   3.598535   3.296312 C.3        1 UNL1     0.0520
     16 C         -7.279154   4.073172   3.981853 C.3        1 UNL1     0.1322
     17 O         -6.126407   3.37412   3.462652 O.3        1 UNL1     -0.4828
     18 C         -7.13218   5.596147   4.022731 C.ar        1 UNL1     -0.0067
     19 C         -5.914758   6.185365   3.624083 C.ar        1 UNL1     -0.0516
     20 C         -5.730702   7.571432   3.69411 C.ar        1 UNL1     -0.0198
     21 C         -6.751478   8.376636   4.166857 C.ar        1 UNL1     0.1169
     22 C         -7.973507   7.829134   4.535266 C.ar        1 UNL1     -0.0198
     23 C         -8.164257   6.444921   4.447931 C.ar        1 UNL1     -0.0516
     24 O         -6.522477   9.718247   4.256518 O.3        1 UNL1     -0.5068
     25 O         -9.407168   4.215822   1.166077 O.2        1 UNL1     -0.2917
     26 O         -7.858491   3.930252   -1.022205 O.3        1 UNL1     -0.5058
     27 O         -2.231905   0.088072   1.249311 O.3        1 UNL1     -0.3648
     28 O         -0.499917   -0.986251   -1.728647 O.3        1 UNL1     -0.3841
     29 O         -0.180567   2.411495   -0.631293 O.3        1 UNL1     -0.3863
     30 O         -2.156674   0.983832   -3.380272 O.3        1 UNL1     -0.3829
     31 H         -2.308512   -1.321345   -0.159824 H        1 UNL1     0.0937
     32 H         0.0   0.0   0.0 H        1 UNL1     0.0671
     33 H         0.081912   1.288646   -2.290827 H        1 UNL1     0.0649
     34 H         -1.925416   2.836656   -2.528511 H        1 UNL1     0.0683
     35 H         -4.06365   1.777696   -1.962111 H        1 UNL1     0.1085
     36 H         -5.506686   3.245178   -1.734241 H        1 UNL1     0.0691
     37 H         -3.960673   2.746771   2.264713 H        1 UNL1     0.0691
     38 H         -8.691302   2.519509   3.423214 H        1 UNL1     0.0385
     39 H         -9.444224   4.105291   3.68195 H        1 UNL1     0.0385
     40 H         -7.340601   3.758857   5.032543 H        1 UNL1     0.0789
     41 H         -5.09494   5.574168   3.258041 H        1 UNL1     0.0623
     42 H         -4.783143   8.012652   3.394997 H        1 UNL1     0.0654
     43 H         -8.784814   8.452   4.892658 H        1 UNL1     0.0654
     44 H         -9.135287   6.052421   4.734093 H        1 UNL1     0.0623
     45 H         -5.779336   9.862569   4.86449 H        1 UNL1     0.2921
     46 H         -8.620086   3.347201   -0.875791 H        1 UNL1     0.2922
     47 H         -1.539044   -0.380227   1.735624 H        1 UNL1     0.2126
     48 H         -0.475902   -1.827707   -1.233564 H        1 UNL1     0.2101
     49 H         0.752224   2.241852   -0.424129 H        1 UNL1     0.2100
     50 H         -1.441492   1.211494   -4.009873 H        1 UNL1     0.2102
@<TRIPOS>BOND
     1     1     2    1
     2     1     6    1
     3     2     3    1
     4     3     4    1
     5     3    29    1
     6     3    33    1
     7     4     5    1
     8     5     6    1
     9     5     7    1
    10     5    35    1
    11     7     8    1
    12     8     9   ar
    13     8    13   ar
    14     9    10   ar
    15     9    36    1
    16    10    11   ar
    17    10    26    1
    18    11    12   ar
    19    11    14    1
    20    12    13   ar
    21    12    17    1
    22    13    37    1
    23    14    15    1
    24    14    25    2
    25    15    16    1
    26    15    38    1
    27    15    39    1
    28    16    17    1
    29    16    18    1
    30    16    40    1
    31    18    19   ar
    32    18    23   ar
    33    19    20   ar
    34    19    41    1
    35    20    21   ar
    36    20    42    1
    37    21    22   ar
    38    21    24    1
    39    22    23   ar
    40    22    43    1
    41    23    44    1
    42    24    45    1
    43    26    46    1
    44    27    47    1
    45    28    48    1
    46    29    49    1
    47    30    50    1
    48     1    31    1
    49     1    27    1
    50     2    32    1
    51     2    28    1
    52     4    34    1
    53     4    30    1
