@<TRIPOS>MOLECULE
*****
 50 53 0 0 0
SMALL
GASTEIGER

@<TRIPOS>ATOM
     1 C         -0.594865   -1.647538   1.304822 C.3        1 UNL1     0.1889
     2 C         -0.783525   -0.215016   0.737169 C.3        1 UNL1     0.1342
     3 C         -0.794324   0.898086   1.796108 C.3        1 UNL1     0.1174
     4 C         -1.443183   0.459711   3.111375 C.3        1 UNL1     0.1456
     5 C         -0.943651   -0.91715   3.585808 C.3        1 UNL1     0.2326
     6 O         -1.179684   -1.894603   2.574995 O.3        1 UNL1     -0.3076
     7 O         0.417635   -0.90334   4.052743 O.3        1 UNL1     -0.4605
     8 C         0.591021   -0.69795   5.409681 C.ar        1 UNL1     0.1310
     9 C         1.756263   -0.213296   6.013519 C.ar        1 UNL1     0.0226
     10 C         1.828259   -0.022916   7.398609 C.ar        1 UNL1     0.1343
     11 C         0.72763   -0.290325   8.211596 C.ar        1 UNL1     0.1007
     12 C         -0.427805   -0.813535   7.625077 C.ar        1 UNL1     0.1389
     13 C         -0.499053   -1.007369   6.232675 C.ar        1 UNL1     0.0229
     14 C         0.720689   -0.028173   9.669466 C.2        1 UNL1     0.1740
     15 C         -0.611525   -0.161902   10.346865 C.3        1 UNL1     0.0520
     16 C         -1.328794   -1.372029   9.764563 C.3        1 UNL1     0.1322
     17 O         -1.531049   -1.213231   8.342963 O.3        1 UNL1     -0.4828
     18 C         -0.708329   -2.710772   10.171398 C.ar        1 UNL1     -0.0067
     19 C         0.30076   -3.279272   9.367183 C.ar        1 UNL1     -0.0516
     20 C         0.85588   -4.524669   9.68466 C.ar        1 UNL1     -0.0198
     21 C         0.406318   -5.213358   10.797058 C.ar        1 UNL1     0.1169
     22 C         -0.562405   -4.664326   11.627106 C.ar        1 UNL1     -0.0198
     23 C         -1.104588   -3.410582   11.320154 C.ar        1 UNL1     -0.0516
     24 O         0.943507   -6.440585   11.053459 O.3        1 UNL1     -0.5068
     25 O         1.708009   0.353208   10.292549 O.2        1 UNL1     -0.2917
     26 O         2.994145   0.451512   7.92512 O.3        1 UNL1     -0.5058
     27 O         0.746461   -2.106194   1.247668 O.3        1 UNL1     -0.3648
     28 O         -2.045203   -0.160842   0.045836 O.3        1 UNL1     -0.3841
     29 O         0.516475   1.437269   1.978372 O.3        1 UNL1     -0.3863
     30 O         -2.875357   0.398552   2.935794 O.3        1 UNL1     -0.3829
     31 H         -1.139589   -2.323174   0.636338 H        1 UNL1     0.0937
     32 H         0.0   0.0   0.0 H        1 UNL1     0.0671
     33 H         -1.399215   1.727763   1.404365 H        1 UNL1     0.0649
     34 H         -1.247345   1.203897   3.891269 H        1 UNL1     0.0683
     35 H         -1.603813   -1.162539   4.427146 H        1 UNL1     0.1085
     36 H         2.626894   0.066059   5.430353 H        1 UNL1     0.0691
     37 H         -1.409624   -1.417015   5.800768 H        1 UNL1     0.0691
     38 H         -1.173255   0.759046   10.157545 H        1 UNL1     0.0385
     39 H         -0.457238   -0.252423   11.427504 H        1 UNL1     0.0385
     40 H         -2.34278   -1.381439   10.186777 H        1 UNL1     0.0789
     41 H         0.664326   -2.762808   8.483591 H        1 UNL1     0.0623
     42 H         1.624981   -4.957917   9.050002 H        1 UNL1     0.0654
     43 H         -0.910979   -5.18828   12.50908 H        1 UNL1     0.0654
     44 H         -1.851967   -3.007053   11.996492 H        1 UNL1     0.0623
     45 H         1.906406   -6.343598   11.131784 H        1 UNL1     0.2921
     46 H         2.883124   1.384026   8.169054 H        1 UNL1     0.2922
     47 H         1.112715   -1.960656   0.364188 H        1 UNL1     0.2126
     48 H         -2.250599   -1.07387   -0.233314 H        1 UNL1     0.2101
     49 H         1.013854   0.89025   2.607003 H        1 UNL1     0.2100
     50 H         -3.220211   1.315397   2.949377 H        1 UNL1     0.2102
@<TRIPOS>BOND
     1     1     2    1
     2     1     6    1
     3     2     3    1
     4     3     4    1
     5     3    29    1
     6     3    33    1
     7     4     5    1
     8     5     6    1
     9     5     7    1
    10     5    35    1
    11     7     8    1
    12     8     9   ar
    13     8    13   ar
    14     9    10   ar
    15     9    36    1
    16    10    11   ar
    17    10    26    1
    18    11    12   ar
    19    11    14    1
    20    12    13   ar
    21    12    17    1
    22    13    37    1
    23    14    15    1
    24    14    25    2
    25    15    16    1
    26    15    38    1
    27    15    39    1
    28    16    17    1
    29    16    18    1
    30    16    40    1
    31    18    19   ar
    32    18    23   ar
    33    19    20   ar
    34    19    41    1
    35    20    21   ar
    36    20    42    1
    37    21    22   ar
    38    21    24    1
    39    22    23   ar
    40    22    43    1
    41    23    44    1
    42    24    45    1
    43    26    46    1
    44    27    47    1
    45    28    48    1
    46    29    49    1
    47    30    50    1
    48     1    31    1
    49     1    27    1
    50     2    32    1
    51     2    28    1
    52     4    34    1
    53     4    30    1
