@<TRIPOS>MOLECULE
*****
 50 53 0 0 0
SMALL
GASTEIGER

@<TRIPOS>ATOM
     1 C         -0.335236   -1.330369   1.69957 C.3        1 UNL1     0.1889
     2 C         -0.464016   -0.975017   0.193887 C.3        1 UNL1     0.1342
     3 C         -1.904413   -0.959603   -0.34042 C.3        1 UNL1     0.1174
     4 C         -2.792761   -2.018561   0.317276 C.3        1 UNL1     0.1456
     5 C         -2.642382   -2.04639   1.84926 C.3        1 UNL1     0.2326
     6 O         -1.278077   -2.266959   2.199816 O.3        1 UNL1     -0.3076
     7 O         -3.216161   -0.899481   2.502481 O.3        1 UNL1     -0.4605
     8 C         -3.781454   -1.128697   3.744025 C.ar        1 UNL1     0.1310
     9 C         -4.637007   -2.189119   4.06157 C.ar        1 UNL1     0.0226
     10 C         -5.145848   -2.345698   5.356354 C.ar        1 UNL1     0.1343
     11 C         -4.792115   -1.458299   6.371853 C.ar        1 UNL1     0.1007
     12 C         -3.971284   -0.372017   6.057193 C.ar        1 UNL1     0.1389
     13 C         -3.461898   -0.213298   4.754593 C.ar        1 UNL1     0.0229
     14 C         -5.233167   -1.624279   7.77616 C.2        1 UNL1     0.1740
     15 C         -4.581178   -0.712343   8.773572 C.3        1 UNL1     0.0520
     16 C         -4.453503   0.670831   8.150284 C.3        1 UNL1     0.1322
     17 O         -3.647571   0.621051   6.952342 O.3        1 UNL1     -0.4828
     18 C         -5.790072   1.398343   7.985868 C.ar        1 UNL1     -0.0067
     19 C         -6.104606   1.997988   6.749054 C.ar        1 UNL1     -0.0516
     20 C         -7.297157   2.711407   6.579297 C.ar        1 UNL1     -0.0198
     21 C         -8.178056   2.838354   7.638413 C.ar        1 UNL1     0.1169
     22 C         -7.911872   2.230826   8.858616 C.ar        1 UNL1     -0.0198
     23 C         -6.728035   1.501771   9.023135 C.ar        1 UNL1     -0.0516
     24 O         -9.311586   3.572412   7.44692 O.3        1 UNL1     -0.5068
     25 O         -6.018345   -2.495957   8.139695 O.2        1 UNL1     -0.2917
     26 O         -5.976263   -3.400448   5.600276 O.3        1 UNL1     -0.5058
     27 O         -0.228929   -0.193548   2.541665 O.3        1 UNL1     -0.3648
     28 O         0.265683   -1.953379   -0.56969 O.3        1 UNL1     -0.3841
     29 O         -2.459998   0.354712   -0.262741 O.3        1 UNL1     -0.3863
     30 O         -2.446701   -3.319086   -0.206714 O.3        1 UNL1     -0.3829
     31 H         0.624588   -1.844811   1.818595 H        1 UNL1     0.0937
     32 H         0.0   0.0   0.0 H        1 UNL1     0.0671
     33 H         -1.866914   -1.197613   -1.412644 H        1 UNL1     0.0649
     34 H         -3.842422   -1.838312   0.060132 H        1 UNL1     0.0683
     35 H         -3.198642   -2.941899   2.153429 H        1 UNL1     0.1085
     36 H         -4.904912   -2.944148   3.330627 H        1 UNL1     0.0691
     37 H         -2.825767   0.641475   4.535061 H        1 UNL1     0.0691
     38 H         -3.597339   -1.13078   9.011266 H        1 UNL1     0.0385
     39 H         -5.178207   -0.699206   9.69181 H        1 UNL1     0.0385
     40 H         -3.870787   1.287652   8.847775 H        1 UNL1     0.0789
     41 H         -5.425465   1.920512   5.905007 H        1 UNL1     0.0623
     42 H         -7.522782   3.179323   5.624226 H        1 UNL1     0.0654
     43 H         -8.601845   2.311227   9.69011 H        1 UNL1     0.0654
     44 H         -6.55731   1.031439   9.986714 H        1 UNL1     0.0623
     45 H         -9.054133   4.481331   7.22264 H        1 UNL1     0.2921
     46 H         -5.614426   -3.936564   6.323508 H        1 UNL1     0.2922
     47 H         0.51338   0.360936   2.263486 H        1 UNL1     0.2126
     48 H         1.201246   -1.877634   -0.30003 H        1 UNL1     0.2101
     49 H         -2.019907   0.937345   -0.902 H        1 UNL1     0.2100
     50 H         -2.679236   -3.332386   -1.158272 H        1 UNL1     0.2102
@<TRIPOS>BOND
     1     1     2    1
     2     1     6    1
     3     2     3    1
     4     3     4    1
     5     3    29    1
     6     3    33    1
     7     4     5    1
     8     5     6    1
     9     5     7    1
    10     5    35    1
    11     7     8    1
    12     8     9   ar
    13     8    13   ar
    14     9    10   ar
    15     9    36    1
    16    10    11   ar
    17    10    26    1
    18    11    12   ar
    19    11    14    1
    20    12    13   ar
    21    12    17    1
    22    13    37    1
    23    14    15    1
    24    14    25    2
    25    15    16    1
    26    15    38    1
    27    15    39    1
    28    16    17    1
    29    16    18    1
    30    16    40    1
    31    18    19   ar
    32    18    23   ar
    33    19    20   ar
    34    19    41    1
    35    20    21   ar
    36    20    42    1
    37    21    22   ar
    38    21    24    1
    39    22    23   ar
    40    22    43    1
    41    23    44    1
    42    24    45    1
    43    26    46    1
    44    27    47    1
    45    28    48    1
    46    29    49    1
    47    30    50    1
    48     1    31    1
    49     1    27    1
    50     2    32    1
    51     2    28    1
    52     4    34    1
    53     4    30    1
