@<TRIPOS>MOLECULE
*****
 50 53 0 0 0
SMALL
GASTEIGER

@<TRIPOS>ATOM
     1 C         1.013357   -1.008388   1.651383 C.3        1 UNL1     0.1889
     2 C         -0.268441   -0.609674   0.871665 C.3        1 UNL1     0.1342
     3 C         -1.318055   0.141836   1.704736 C.3        1 UNL1     0.1174
     4 C         -1.373531   -0.33394   3.158585 C.3        1 UNL1     0.1456
     5 C         0.024109   -0.461583   3.791572 C.3        1 UNL1     0.2326
     6 O         0.829036   -1.34823   3.017739 O.3        1 UNL1     -0.3076
     7 O         0.658207   0.80604   4.041315 O.3        1 UNL1     -0.4605
     8 C         0.976454   1.555442   2.922993 C.ar        1 UNL1     0.1310
     9 C         1.461651   1.042688   1.715116 C.ar        1 UNL1     0.0226
     10 C         1.739171   1.884059   0.631151 C.ar        1 UNL1     0.1343
     11 C         1.515435   3.257271   0.720988 C.ar        1 UNL1     0.1007
     12 C         1.070049   3.785982   1.935434 C.ar        1 UNL1     0.1389
     13 C         0.793589   2.940092   3.026063 C.ar        1 UNL1     0.0229
     14 C         1.711815   4.181518   -0.419782 C.2        1 UNL1     0.1740
     15 C         1.212734   5.581621   -0.21441 C.3        1 UNL1     0.0520
     16 C         1.548696   6.009125   1.207676 C.3        1 UNL1     0.1322
     17 O         0.919155   5.133233   2.168697 O.3        1 UNL1     -0.4828
     18 C         3.042918   6.241335   1.444535 C.ar        1 UNL1     -0.0067
     19 C         3.981635   5.375548   0.846675 C.ar        1 UNL1     -0.0516
     20 C         5.353116   5.530974   1.080865 C.ar        1 UNL1     -0.0198
     21 C         5.797097   6.541459   1.914908 C.ar        1 UNL1     0.1169
     22 C         4.89937   7.430547   2.49149 C.ar        1 UNL1     -0.0198
     23 C         3.529152   7.286718   2.24275 C.ar        1 UNL1     -0.0516
     24 O         7.137199   6.638601   2.149617 O.3        1 UNL1     -0.5068
     25 O         2.175693   3.83116   -1.501702 O.2        1 UNL1     -0.2917
     26 O         2.211322   1.321065   -0.5185 O.3        1 UNL1     -0.5058
     27 O         2.086703   -0.096874   1.478587 O.3        1 UNL1     -0.3648
     28 O         -0.892788   -1.808818   0.37674 O.3        1 UNL1     -0.3841
     29 O         -1.138444   1.554994   1.591347 O.3        1 UNL1     -0.3863
     30 O         -2.026152   -1.621188   3.211209 O.3        1 UNL1     -0.3829
     31 H         1.375582   -1.939717   1.202497 H        1 UNL1     0.0937
     32 H         0.0   0.0   0.0 H        1 UNL1     0.0671
     33 H         -2.304325   -0.063103   1.265429 H        1 UNL1     0.0649
     34 H         -1.979096   0.357094   3.75538 H        1 UNL1     0.0683
     35 H         -0.16467   -0.95801   4.751677 H        1 UNL1     0.1085
     36 H         1.603556   -0.021738   1.56352 H        1 UNL1     0.0691
     37 H         0.448861   3.376653   3.96098 H        1 UNL1     0.0691
     38 H         0.130028   5.574816   -0.379417 H        1 UNL1     0.0385
     39 H         1.668679   6.238616   -0.962909 H        1 UNL1     0.0385
     40 H         1.0731   6.985318   1.373128 H        1 UNL1     0.0789
     41 H         3.657901   4.568954   0.195328 H        1 UNL1     0.0623
     42 H         6.066238   4.849578   0.623514 H        1 UNL1     0.0654
     43 H         5.237352   8.234644   3.134223 H        1 UNL1     0.0654
     44 H         2.857014   8.005682   2.701189 H        1 UNL1     0.0623
     45 H         7.294821   7.415353   2.710445 H        1 UNL1     0.2921
     46 H         1.791024   1.745686   -1.282999 H        1 UNL1     0.2922
     47 H         2.268236   0.367627   2.307529 H        1 UNL1     0.2126
     48 H         -1.524838   -2.098571   1.062517 H        1 UNL1     0.2101
     49 H         -0.62878   1.884691   2.348536 H        1 UNL1     0.2100
     50 H         -2.796073   -1.544548   3.812093 H        1 UNL1     0.2102
@<TRIPOS>BOND
     1     1     2    1
     2     1     6    1
     3     2     3    1
     4     3     4    1
     5     3    29    1
     6     3    33    1
     7     4     5    1
     8     5     6    1
     9     5     7    1
    10     5    35    1
    11     7     8    1
    12     8     9   ar
    13     8    13   ar
    14     9    10   ar
    15     9    36    1
    16    10    11   ar
    17    10    26    1
    18    11    12   ar
    19    11    14    1
    20    12    13   ar
    21    12    17    1
    22    13    37    1
    23    14    15    1
    24    14    25    2
    25    15    16    1
    26    15    38    1
    27    15    39    1
    28    16    17    1
    29    16    18    1
    30    16    40    1
    31    18    19   ar
    32    18    23   ar
    33    19    20   ar
    34    19    41    1
    35    20    21   ar
    36    20    42    1
    37    21    22   ar
    38    21    24    1
    39    22    23   ar
    40    22    43    1
    41    23    44    1
    42    24    45    1
    43    26    46    1
    44    27    47    1
    45    28    48    1
    46    29    49    1
    47    30    50    1
    48     1    31    1
    49     1    27    1
    50     2    32    1
    51     2    28    1
    52     4    34    1
    53     4    30    1
