@<TRIPOS>MOLECULE
*****
 50 53 0 0 0
SMALL
GASTEIGER

@<TRIPOS>ATOM
     1 C         -0.998191   -1.690743   -0.956978 C.3        1 UNL1     0.1889
     2 C         -0.83889   -0.17048   -0.686121 C.3        1 UNL1     0.1342
     3 C         -2.093385   0.515626   -0.124015 C.3        1 UNL1     0.1174
     4 C         -3.391861   -0.072607   -0.681743 C.3        1 UNL1     0.1456
     5 C         -3.39909   -1.612051   -0.661163 C.3        1 UNL1     0.2326
     6 O         -2.282178   -2.113182   -1.392083 O.3        1 UNL1     -0.3076
     7 O         -3.504249   -2.167135   0.662523 O.3        1 UNL1     -0.4605
     8 C         -4.705449   -1.955315   1.315039 C.ar        1 UNL1     0.1310
     9 C         -5.535207   -2.956834   1.83056 C.ar        1 UNL1     0.0226
     10 C         -6.727462   -2.639492   2.492169 C.ar        1 UNL1     0.1343
     11 C         -7.107398   -1.310614   2.67539 C.ar        1 UNL1     0.1007
     12 C         -6.30769   -0.303217   2.129126 C.ar        1 UNL1     0.1389
     13 C         -5.110271   -0.622666   1.461616 C.ar        1 UNL1     0.0229
     14 C         -8.313436   -0.915879   3.439465 C.2        1 UNL1     0.1740
     15 C         -8.44845   0.550532   3.727492 C.3        1 UNL1     0.0520
     16 C         -8.014963   1.326257   2.491249 C.3        1 UNL1     0.1322
     17 O         -6.641   1.031112   2.156313 O.3        1 UNL1     -0.4828
     18 C         -8.992157   1.21294   1.318655 C.ar        1 UNL1     -0.0067
     19 C         -8.604506   1.681179   0.046377 C.ar        1 UNL1     -0.0516
     20 C         -9.490796   1.635965   -1.036402 C.ar        1 UNL1     -0.0198
     21 C         -10.767101   1.132756   -0.858491 C.ar        1 UNL1     0.1169
     22 C         -11.166784   0.633376   0.374275 C.ar        1 UNL1     -0.0198
     23 C         -10.274466   0.661482   1.452716 C.ar        1 UNL1     -0.0516
     24 O         -11.615167   1.139595   -1.926732 O.3        1 UNL1     -0.5068
     25 O         -9.123103   -1.722636   3.888984 O.2        1 UNL1     -0.2917
     26 O         -7.492293   -3.663108   2.970529 O.3        1 UNL1     -0.5058
     27 O         -0.506721   -2.506845   0.094317 O.3        1 UNL1     -0.3648
     28 O         -0.513389   0.48231   -1.927339 O.3        1 UNL1     -0.3841
     29 O         -2.063489   0.535312   1.304569 O.3        1 UNL1     -0.3863
     30 O         -3.567677   0.374146   -2.043797 O.3        1 UNL1     -0.3829
     31 H         -0.349205   -1.926667   -1.807411 H        1 UNL1     0.0937
     32 H         0.0   0.0   0.0 H        1 UNL1     0.0671
     33 H         -2.064734   1.57045   -0.431008 H        1 UNL1     0.0649
     34 H         -4.247928   0.300763   -0.108905 H        1 UNL1     0.0683
     35 H         -4.298486   -1.879973   -1.229656 H        1 UNL1     0.1085
     36 H         -5.26791   -4.00611   1.769789 H        1 UNL1     0.0691
     37 H         -4.505971   0.179998   1.044428 H        1 UNL1     0.0691
     38 H         -7.805329   0.780458   4.58368 H        1 UNL1     0.0385
     39 H         -9.48438   0.766952   4.009964 H        1 UNL1     0.0385
     40 H         -8.008852   2.39061   2.762607 H        1 UNL1     0.0789
     41 H         -7.611292   2.089232   -0.116931 H        1 UNL1     0.0623
     42 H         -9.184068   2.011051   -2.009665 H        1 UNL1     0.0654
     43 H         -12.15886   0.223263   0.520911 H        1 UNL1     0.0654
     44 H         -10.616615   0.253233   2.398819 H        1 UNL1     0.0623
     45 H         -12.273044   0.43675   -1.800543 H        1 UNL1     0.2921
     46 H         -6.917082   -4.350452   3.342152 H        1 UNL1     0.2922
     47 H         -0.999845   -2.336437   0.908964 H        1 UNL1     0.2126
     48 H         0.460306   0.472055   -2.0018 H        1 UNL1     0.2101
     49 H         -2.386218   1.390861   1.629649 H        1 UNL1     0.2100
     50 H         -3.269093   -0.345231   -2.637983 H        1 UNL1     0.2102
@<TRIPOS>BOND
     1     1     2    1
     2     1     6    1
     3     2     3    1
     4     3     4    1
     5     3    29    1
     6     3    33    1
     7     4     5    1
     8     5     6    1
     9     5     7    1
    10     5    35    1
    11     7     8    1
    12     8     9   ar
    13     8    13   ar
    14     9    10   ar
    15     9    36    1
    16    10    11   ar
    17    10    26    1
    18    11    12   ar
    19    11    14    1
    20    12    13   ar
    21    12    17    1
    22    13    37    1
    23    14    15    1
    24    14    25    2
    25    15    16    1
    26    15    38    1
    27    15    39    1
    28    16    17    1
    29    16    18    1
    30    16    40    1
    31    18    19   ar
    32    18    23   ar
    33    19    20   ar
    34    19    41    1
    35    20    21   ar
    36    20    42    1
    37    21    22   ar
    38    21    24    1
    39    22    23   ar
    40    22    43    1
    41    23    44    1
    42    24    45    1
    43    26    46    1
    44    27    47    1
    45    28    48    1
    46    29    49    1
    47    30    50    1
    48     1    31    1
    49     1    27    1
    50     2    32    1
    51     2    28    1
    52     4    34    1
    53     4    30    1
