@<TRIPOS>MOLECULE
*****
 50 53 0 0 0
SMALL
GASTEIGER

@<TRIPOS>ATOM
     1 C         -2.168078   -0.221633   -0.145336 C.3        1 UNL1     0.1889
     2 C         -0.775741   0.054672   -0.773821 C.3        1 UNL1     0.1342
     3 C         -0.658543   1.399897   -1.506692 C.3        1 UNL1     0.1174
     4 C         -1.955921   1.808131   -2.209027 C.3        1 UNL1     0.1456
     5 C         -3.193418   1.636262   -1.309346 C.3        1 UNL1     0.2326
     6 O         -3.284625   0.285887   -0.860976 O.3        1 UNL1     -0.3076
     7 O         -3.260225   2.594182   -0.237316 O.3        1 UNL1     -0.4605
     8 C         -4.53039   2.965872   0.165247 C.ar        1 UNL1     0.1310
     9 C         -5.583594   3.308433   -0.689571 C.ar        1 UNL1     0.0226
     10 C         -6.842236   3.655414   -0.184274 C.ar        1 UNL1     0.1343
     11 C         -7.085172   3.645163   1.188576 C.ar        1 UNL1     0.1007
     12 C         -6.029921   3.344633   2.053973 C.ar        1 UNL1     0.1389
     13 C         -4.763732   2.998348   1.54576 C.ar        1 UNL1     0.0229
     14 C         -8.418063   3.921672   1.772612 C.2        1 UNL1     0.1740
     15 C         -8.552242   3.649271   3.242082 C.3        1 UNL1     0.0520
     16 C         -7.280072   4.115297   3.936604 C.3        1 UNL1     0.1322
     17 O         -6.128267   3.409477   3.424517 O.3        1 UNL1     -0.4828
     18 C         -7.123826   5.637282   3.979872 C.ar        1 UNL1     -0.0067
     19 C         -5.894311   6.218121   3.606866 C.ar        1 UNL1     -0.0516
     20 C         -5.702524   7.602973   3.680127 C.ar        1 UNL1     -0.0198
     21 C         -6.727696   8.415257   4.130729 C.ar        1 UNL1     0.1169
     22 C         -7.960897   7.876145   4.473386 C.ar        1 UNL1     -0.0198
     23 C         -8.158995   6.493183   4.382677 C.ar        1 UNL1     -0.0516
     24 O         -6.491689   9.755366   4.224595 O.3        1 UNL1     -0.5068
     25 O         -9.388166   4.273781   1.106726 O.2        1 UNL1     -0.2917
     26 O         -7.82663   3.980417   -1.071363 O.3        1 UNL1     -0.5058
     27 O         -2.239659   0.100986   1.234367 O.3        1 UNL1     -0.3648
     28 O         -0.494458   -0.981572   -1.732875 O.3        1 UNL1     -0.3841
     29 O         -0.161186   2.413136   -0.63027 O.3        1 UNL1     -0.3863
     30 O         -2.127679   1.000325   -3.393779 O.3        1 UNL1     -0.3829
     31 H         -2.315629   -1.306683   -0.176549 H        1 UNL1     0.0937
     32 H         0.0   0.0   0.0 H        1 UNL1     0.0671
     33 H         0.105398   1.29012   -2.289037 H        1 UNL1     0.0649
     34 H         -1.890536   2.850912   -2.538777 H        1 UNL1     0.0683
     35 H         -4.039132   1.804901   -1.987732 H        1 UNL1     0.1085
     36 H         -5.474433   3.281214   -1.768211 H        1 UNL1     0.0691
     37 H         -3.958504   2.769595   2.240579 H        1 UNL1     0.0691
     38 H         -8.698149   2.571023   3.367058 H        1 UNL1     0.0385
     39 H         -9.442832   4.161274   3.62219 H        1 UNL1     0.0385
     40 H         -7.350554   3.80045   4.986568 H        1 UNL1     0.0789
     41 H         -5.071015   5.601245   3.258588 H        1 UNL1     0.0623
     42 H         -4.745906   8.037679   3.400978 H        1 UNL1     0.0654
     43 H         -8.775422   8.504629   4.81319 H        1 UNL1     0.0654
     44 H         -9.138478   6.107344   4.648358 H        1 UNL1     0.0623
     45 H         -5.766244   9.895638   4.854491 H        1 UNL1     0.2921
     46 H         -8.593359   3.402951   -0.929686 H        1 UNL1     0.2922
     47 H         -1.550413   -0.368889   1.724282 H        1 UNL1     0.2126
     48 H         -0.462171   -1.821522   -1.235708 H        1 UNL1     0.2101
     49 H         0.771504   2.242137   -0.423772 H        1 UNL1     0.2100
     50 H         -1.410149   1.228123   -4.020654 H        1 UNL1     0.2102
@<TRIPOS>BOND
     1     1     2    1
     2     1     6    1
     3     2     3    1
     4     3     4    1
     5     3    29    1
     6     3    33    1
     7     4     5    1
     8     5     6    1
     9     5     7    1
    10     5    35    1
    11     7     8    1
    12     8     9   ar
    13     8    13   ar
    14     9    10   ar
    15     9    36    1
    16    10    11   ar
    17    10    26    1
    18    11    12   ar
    19    11    14    1
    20    12    13   ar
    21    12    17    1
    22    13    37    1
    23    14    15    1
    24    14    25    2
    25    15    16    1
    26    15    38    1
    27    15    39    1
    28    16    17    1
    29    16    18    1
    30    16    40    1
    31    18    19   ar
    32    18    23   ar
    33    19    20   ar
    34    19    41    1
    35    20    21   ar
    36    20    42    1
    37    21    22   ar
    38    21    24    1
    39    22    23   ar
    40    22    43    1
    41    23    44    1
    42    24    45    1
    43    26    46    1
    44    27    47    1
    45    28    48    1
    46    29    49    1
    47    30    50    1
    48     1    31    1
    49     1    27    1
    50     2    32    1
    51     2    28    1
    52     4    34    1
    53     4    30    1
