@<TRIPOS>MOLECULE
*****
 50 53 0 0 0
SMALL
GASTEIGER

@<TRIPOS>ATOM
     1 C         -0.331171   -1.327597   1.702532 C.3        1 UNL1     0.1889
     2 C         -0.462101   -0.975447   0.196283 C.3        1 UNL1     0.1342
     3 C         -1.903063   -0.963624   -0.336592 C.3        1 UNL1     0.1174
     4 C         -2.788877   -2.022843   0.324094 C.3        1 UNL1     0.1456
     5 C         -2.6369   -2.047381   1.855977 C.3        1 UNL1     0.2326
     6 O         -1.271854   -2.264855   2.205582 O.3        1 UNL1     -0.3076
     7 O         -3.212038   -0.900195   2.507515 O.3        1 UNL1     -0.4605
     8 C         -3.721202   -1.115146   3.775614 C.ar        1 UNL1     0.1310
     9 C         -4.536953   -2.188266   4.150135 C.ar        1 UNL1     0.0226
     10 C         -4.989378   -2.328096   5.467581 C.ar        1 UNL1     0.1343
     11 C         -4.617098   -1.410227   6.448786 C.ar        1 UNL1     0.1007
     12 C         -3.836551   -0.312021   6.07801 C.ar        1 UNL1     0.1389
     13 C         -3.383948   -0.170212   4.752691 C.ar        1 UNL1     0.0229
     14 C         -4.997179   -1.555413   7.87308 C.2        1 UNL1     0.1740
     15 C         -4.328304   -0.606342   8.823564 C.3        1 UNL1     0.0520
     16 C         -4.259845   0.765294   8.166386 C.3        1 UNL1     0.1322
     17 O         -3.501691   0.708077   6.937973 O.3        1 UNL1     -0.4828
     18 C         -5.61944   1.457049   8.041081 C.ar        1 UNL1     -0.0067
     19 C         -5.999232   2.019001   6.804885 C.ar        1 UNL1     -0.0516
     20 C         -7.21485   2.699921   6.668557 C.ar        1 UNL1     -0.0198
     21 C         -8.054203   2.831793   7.760309 C.ar        1 UNL1     0.1169
     22 C         -7.723197   2.260425   8.982116 C.ar        1 UNL1     -0.0198
     23 C         -6.516117   1.563548   9.113939 C.ar        1 UNL1     -0.0516
     24 O         -9.212267   3.534197   7.599326 O.3        1 UNL1     -0.5068
     25 O         -5.745432   -2.437197   8.286676 O.2        1 UNL1     -0.2917
     26 O         -5.783115   -3.396584   5.767413 O.3        1 UNL1     -0.5058
     27 O         -0.226016   -0.188929   2.542274 O.3        1 UNL1     -0.3648
     28 O         0.268549   -1.95403   -0.566103 O.3        1 UNL1     -0.3841
     29 O         -2.460884   0.349862   -0.260943 O.3        1 UNL1     -0.3863
     30 O         -2.441056   -3.32379   -0.197679 O.3        1 UNL1     -0.3829
     31 H         0.629677   -1.840112   1.821598 H        1 UNL1     0.0937
     32 H         0.0   0.0   0.0 H        1 UNL1     0.0671
     33 H         -1.866229   -1.203686   -1.408382 H        1 UNL1     0.0649
     34 H         -3.839113   -1.844951   0.06766 H        1 UNL1     0.0683
     35 H         -3.191272   -2.943265   2.162477 H        1 UNL1     0.1085
     36 H         -4.815331   -2.965481   3.446884 H        1 UNL1     0.0691
     37 H         -2.778378   0.694333   4.48937 H        1 UNL1     0.0691
     38 H         -3.325713   -0.995931   9.02986 H        1 UNL1     0.0385
     39 H         -4.888118   -0.586999   9.764846 H        1 UNL1     0.0385
     40 H         -3.664947   1.411104   8.826345 H        1 UNL1     0.0789
     41 H         -5.353754   1.937051   5.935235 H        1 UNL1     0.0623
     42 H         -7.491006   3.139132   5.713129 H        1 UNL1     0.0654
     43 H         -8.380084   2.344741   9.839613 H        1 UNL1     0.0654
     44 H         -6.294388   1.120839   10.080215 H        1 UNL1     0.0623
     45 H         -8.986731   4.441694   7.337981 H        1 UNL1     0.2921
     46 H         -5.378749   -3.908551   6.485598 H        1 UNL1     0.2922
     47 H         0.516727   0.3649   2.263948 H        1 UNL1     0.2126
     48 H         1.201514   -1.887779   -0.285178 H        1 UNL1     0.2101
     49 H         -2.022348   0.932048   -0.901677 H        1 UNL1     0.2100
     50 H         -2.67453   -3.339379   -1.148972 H        1 UNL1     0.2102
@<TRIPOS>BOND
     1     1     2    1
     2     1     6    1
     3     2     3    1
     4     3     4    1
     5     3    29    1
     6     3    33    1
     7     4     5    1
     8     5     6    1
     9     5     7    1
    10     5    35    1
    11     7     8    1
    12     8     9   ar
    13     8    13   ar
    14     9    10   ar
    15     9    36    1
    16    10    11   ar
    17    10    26    1
    18    11    12   ar
    19    11    14    1
    20    12    13   ar
    21    12    17    1
    22    13    37    1
    23    14    15    1
    24    14    25    2
    25    15    16    1
    26    15    38    1
    27    15    39    1
    28    16    17    1
    29    16    18    1
    30    16    40    1
    31    18    19   ar
    32    18    23   ar
    33    19    20   ar
    34    19    41    1
    35    20    21   ar
    36    20    42    1
    37    21    22   ar
    38    21    24    1
    39    22    23   ar
    40    22    43    1
    41    23    44    1
    42    24    45    1
    43    26    46    1
    44    27    47    1
    45    28    48    1
    46    29    49    1
    47    30    50    1
    48     1    31    1
    49     1    27    1
    50     2    32    1
    51     2    28    1
    52     4    34    1
    53     4    30    1
