@<TRIPOS>MOLECULE
*****
 50 53 0 0 0
SMALL
GASTEIGER

@<TRIPOS>ATOM
     1 C         -0.338979   -1.333265   1.696556 C.3        1 UNL1     0.1889
     2 C         -0.465675   -0.974706   0.191457 C.3        1 UNL1     0.1342
     3 C         -1.905496   -0.956063   -0.344299 C.3        1 UNL1     0.1174
     4 C         -2.796106   -2.015002   0.310361 C.3        1 UNL1     0.1456
     5 C         -2.647348   -2.046124   1.84244 C.3        1 UNL1     0.2326
     6 O         -1.283737   -2.269439   2.193955 O.3        1 UNL1     -0.3076
     7 O         -3.220082   -0.899665   2.497367 O.3        1 UNL1     -0.4605
     8 C         -3.732965   -1.118096   3.763371 C.ar        1 UNL1     0.1310
     9 C         -4.553271   -2.18994   4.131542 C.ar        1 UNL1     0.0226
     10 C         -5.009274   -2.333649   5.447335 C.ar        1 UNL1     0.1343
     11 C         -4.636161   -1.421122   6.433196 C.ar        1 UNL1     0.1007
     12 C         -3.850982   -0.324086   6.068792 C.ar        1 UNL1     0.1389
     13 C         -3.394775   -0.178367   4.745133 C.ar        1 UNL1     0.0229
     14 C         -5.02009   -1.570877   7.855984 C.2        1 UNL1     0.1740
     15 C         -4.350205   -0.628042   8.811947 C.3        1 UNL1     0.0520
     16 C         -4.275496   0.746052   8.160607 C.3        1 UNL1     0.1322
     17 O         -3.514652   0.691297   6.933747 O.3        1 UNL1     -0.4828
     18 C         -5.632412   1.442989   8.034982 C.ar        1 UNL1     -0.0067
     19 C         -6.006177   2.013787   6.801004 C.ar        1 UNL1     -0.0516
     20 C         -7.219115   2.699488   6.664775 C.ar        1 UNL1     -0.0198
     21 C         -8.061746   2.827357   7.754477 C.ar        1 UNL1     0.1169
     22 C         -7.736748   2.24739   8.973843 C.ar        1 UNL1     -0.0198
     23 C         -6.532384   1.545788   9.105439 C.ar        1 UNL1     -0.0516
     24 O         -9.216978   3.534508   7.59392 O.3        1 UNL1     -0.5068
     25 O         -5.772334   -2.451781   8.264177 O.2        1 UNL1     -0.2917
     26 O         -5.807374   -3.40063   5.740888 O.3        1 UNL1     -0.5058
     27 O         -0.231838   -0.198293   2.541036 O.3        1 UNL1     -0.3648
     28 O         0.263345   -1.952631   -0.57333 O.3        1 UNL1     -0.3841
     29 O         -2.459192   0.358926   -0.264558 O.3        1 UNL1     -0.3863
     30 O         -2.451454   -3.314993   -0.215878 O.3        1 UNL1     -0.3829
     31 H         0.61995   -1.849382   1.815537 H        1 UNL1     0.0937
     32 H         0.0   0.0   0.0 H        1 UNL1     0.0671
     33 H         -1.867248   -1.191981   -1.416959 H        1 UNL1     0.0649
     34 H         -3.84523   -1.832665   0.052499 H        1 UNL1     0.0683
     35 H         -3.205262   -2.941404   2.144242 H        1 UNL1     0.1085
     36 H         -4.832655   -2.963284   3.424433 H        1 UNL1     0.0691
     37 H         -2.785625   0.685171   4.486808 H        1 UNL1     0.0691
     38 H         -3.349444   -1.021924   9.018977 H        1 UNL1     0.0385
     39 H         -4.912165   -0.610658   9.751988 H        1 UNL1     0.0385
     40 H         -3.679943   1.387083   8.824622 H        1 UNL1     0.0789
     41 H         -5.358013   1.9351   5.933051 H        1 UNL1     0.0623
     42 H         -7.490598   3.14548   5.71115 H        1 UNL1     0.0654
     43 H         -8.396272   2.328556   9.829618 H        1 UNL1     0.0654
     44 H         -6.315376   1.096409   10.069706 H        1 UNL1     0.0623
     45 H         -8.987474   4.444336   7.344405 H        1 UNL1     0.2921
     46 H         -5.407148   -3.916168   6.458838 H        1 UNL1     0.2922
     47 H         0.510741   0.356344   2.263884 H        1 UNL1     0.2126
     48 H         1.198742   -1.878828   -0.302556 H        1 UNL1     0.2101
     49 H         -2.01757   0.942177   -0.902196 H        1 UNL1     0.2100
     50 H         -2.688254   -3.327956   -1.166389 H        1 UNL1     0.2102
@<TRIPOS>BOND
     1     1     2    1
     2     1     6    1
     3     2     3    1
     4     3     4    1
     5     3    29    1
     6     3    33    1
     7     4     5    1
     8     5     6    1
     9     5     7    1
    10     5    35    1
    11     7     8    1
    12     8     9   ar
    13     8    13   ar
    14     9    10   ar
    15     9    36    1
    16    10    11   ar
    17    10    26    1
    18    11    12   ar
    19    11    14    1
    20    12    13   ar
    21    12    17    1
    22    13    37    1
    23    14    15    1
    24    14    25    2
    25    15    16    1
    26    15    38    1
    27    15    39    1
    28    16    17    1
    29    16    18    1
    30    16    40    1
    31    18    19   ar
    32    18    23   ar
    33    19    20   ar
    34    19    41    1
    35    20    21   ar
    36    20    42    1
    37    21    22   ar
    38    21    24    1
    39    22    23   ar
    40    22    43    1
    41    23    44    1
    42    24    45    1
    43    26    46    1
    44    27    47    1
    45    28    48    1
    46    29    49    1
    47    30    50    1
    48     1    31    1
    49     1    27    1
    50     2    32    1
    51     2    28    1
    52     4    34    1
    53     4    30    1
