@<TRIPOS>MOLECULE
*****
 50 53 0 0 0
SMALL
GASTEIGER

@<TRIPOS>ATOM
     1 C         -1.79189   0.936245   0.826669 C.3        1 UNL1     0.1889
     2 C         -0.272179   0.932514   0.509802 C.3        1 UNL1     0.1342
     3 C         0.638388   1.119021   1.733137 C.3        1 UNL1     0.1174
     4 C         0.035904   2.054494   2.784336 C.3        1 UNL1     0.1456
     5 C         -1.439298   1.732366   3.084962 C.3        1 UNL1     0.2326
     6 O         -2.204242   1.790752   1.883162 O.3        1 UNL1     -0.3076
     7 O         -1.621053   0.503835   3.812283 O.3        1 UNL1     -0.4605
     8 C         -1.347151   -0.65936   3.115518 C.ar        1 UNL1     0.1310
     9 C         -1.569859   -1.957711   3.586672 C.ar        1 UNL1     0.0226
     10 C         -1.274573   -3.074978   2.796467 C.ar        1 UNL1     0.1343
     11 C         -0.771166   -2.920282   1.505541 C.ar        1 UNL1     0.1007
     12 C         -0.506092   -1.629833   1.039428 C.ar        1 UNL1     0.1389
     13 C         -0.800611   -0.506672   1.835166 C.ar        1 UNL1     0.0229
     14 C         -0.520306   -4.062767   0.596722 C.2        1 UNL1     0.1740
     15 C         -0.194092   -3.703469   -0.823151 C.3        1 UNL1     0.0520
     16 C         0.727984   -2.492003   -0.813898 C.3        1 UNL1     0.1322
     17 O         0.089122   -1.36622   -0.172386 O.3        1 UNL1     -0.4828
     18 C         2.139061   -2.79554   -0.304537 C.ar        1 UNL1     -0.0067
     19 C         2.52768   -2.339291   0.971796 C.ar        1 UNL1     -0.0516
     20 C         3.825592   -2.558571   1.448558 C.ar        1 UNL1     -0.0198
     21 C         4.744282   -3.224847   0.657411 C.ar        1 UNL1     0.1169
     22 C         4.381581   -3.715454   -0.590223 C.ar        1 UNL1     -0.0198
     23 C         3.078321   -3.512468   -1.059654 C.ar        1 UNL1     -0.0516
     24 O         6.009836   -3.386642   1.139692 O.3        1 UNL1     -0.5068
     25 O         -0.643482   -5.23662   0.936402 O.2        1 UNL1     -0.2917
     26 O         -1.514036   -4.313937   3.315334 O.3        1 UNL1     -0.5058
     27 O         -2.3452   -0.363516   0.958033 O.3        1 UNL1     -0.3648
     28 O         0.006621   2.01258   -0.400381 O.3        1 UNL1     -0.3841
     29 O         1.025605   -0.145538   2.27451 O.3        1 UNL1     -0.3863
     30 O         0.126891   3.416887   2.313913 O.3        1 UNL1     -0.3829
     31 H         -2.293687   1.355355   -0.052322 H        1 UNL1     0.0937
     32 H         0.0   0.0   0.0 H        1 UNL1     0.0671
     33 H         1.571203   1.586886   1.388639 H        1 UNL1     0.0649
     34 H         0.615156   1.996514   3.71251 H        1 UNL1     0.0683
     35 H         -1.769657   2.568276   3.714243 H        1 UNL1     0.1085
     36 H         -2.011361   -2.14332   4.559681 H        1 UNL1     0.0691
     37 H         -0.583892   0.487235   1.449583 H        1 UNL1     0.0691
     38 H         -1.137002   -3.478256   -1.332784 H        1 UNL1     0.0385
     39 H         0.263184   -4.568093   -1.316205 H        1 UNL1     0.0385
     40 H         0.857611   -2.175887   -1.857827 H        1 UNL1     0.0789
     41 H         1.827822   -1.805704   1.608297 H        1 UNL1     0.0623
     42 H         4.116668   -2.191428   2.429625 H        1 UNL1     0.0654
     43 H         5.088696   -4.251716   -1.21177 H        1 UNL1     0.0654
     44 H         2.826386   -3.918624   -2.034545 H        1 UNL1     0.0623
     45 H         6.257625   -2.583752   1.626193 H        1 UNL1     0.2921
     46 H         -2.025291   -4.227925   4.135476 H        1 UNL1     0.2922
     47 H         -1.707128   -1.029989   0.667277 H        1 UNL1     0.2126
     48 H         -0.628571   2.724625   -0.192404 H        1 UNL1     0.2101
     49 H         0.281483   -0.76668   2.226972 H        1 UNL1     0.2100
     50 H         0.961122   3.506143   1.808141 H        1 UNL1     0.2102
@<TRIPOS>BOND
     1     1     2    1
     2     1     6    1
     3     2     3    1
     4     3     4    1
     5     3    29    1
     6     3    33    1
     7     4     5    1
     8     5     6    1
     9     5     7    1
    10     5    35    1
    11     7     8    1
    12     8     9   ar
    13     8    13   ar
    14     9    10   ar
    15     9    36    1
    16    10    11   ar
    17    10    26    1
    18    11    12   ar
    19    11    14    1
    20    12    13   ar
    21    12    17    1
    22    13    37    1
    23    14    15    1
    24    14    25    2
    25    15    16    1
    26    15    38    1
    27    15    39    1
    28    16    17    1
    29    16    18    1
    30    16    40    1
    31    18    19   ar
    32    18    23   ar
    33    19    20   ar
    34    19    41    1
    35    20    21   ar
    36    20    42    1
    37    21    22   ar
    38    21    24    1
    39    22    23   ar
    40    22    43    1
    41    23    44    1
    42    24    45    1
    43    26    46    1
    44    27    47    1
    45    28    48    1
    46    29    49    1
    47    30    50    1
    48     1    31    1
    49     1    27    1
    50     2    32    1
    51     2    28    1
    52     4    34    1
    53     4    30    1
