@<TRIPOS>MOLECULE
*****
 50 53 0 0 0
SMALL
GASTEIGER

@<TRIPOS>ATOM
     1 C         -0.376706   -1.349984   1.675244 C.3        1 UNL1     0.1889
     2 C         -0.485304   -0.968307   0.174421 C.3        1 UNL1     0.1342
     3 C         -1.920442   -0.915103   -0.371486 C.3        1 UNL1     0.1174
     4 C         -2.835665   -1.966017   0.26181 C.3        1 UNL1     0.1456
     5 C         -2.699073   -2.021135   1.794346 C.3        1 UNL1     0.2326
     6 O         -1.342578   -2.274968   2.152621 O.3        1 UNL1     -0.3076
     7 O         -3.255125   -0.873253   2.461048 O.3        1 UNL1     -0.4605
     8 C         -3.788344   -1.100944   3.716978 C.ar        1 UNL1     0.1310
     9 C         -4.636057   -2.160533   4.057502 C.ar        1 UNL1     0.0226
     10 C         -5.111426   -2.315572   5.365129 C.ar        1 UNL1     0.1343
     11 C         -4.731088   -1.427435   6.370314 C.ar        1 UNL1     0.1007
     12 C         -3.917996   -0.341962   6.033545 C.ar        1 UNL1     0.1389
     13 C         -3.442282   -0.184791   4.718089 C.ar        1 UNL1     0.0229
     14 C         -5.135871   -1.591815   7.785688 C.2        1 UNL1     0.1740
     15 C         -4.457827   -0.679344   8.765077 C.3        1 UNL1     0.0520
     16 C         -4.345443   0.703161   8.137376 C.3        1 UNL1     0.1322
     17 O         -3.570707   0.651748   6.919094 O.3        1 UNL1     -0.4828
     18 C         -5.685373   1.43135   8.00679 C.ar        1 UNL1     -0.0067
     19 C         -6.031344   2.030023   6.777925 C.ar        1 UNL1     -0.0516
     20 C         -7.227449   2.744024   6.638297 C.ar        1 UNL1     -0.0198
     21 C         -8.080661   2.87252   7.71966 C.ar        1 UNL1     0.1169
     22 C         -7.783457   2.265978   8.933174 C.ar        1 UNL1     -0.0198
     23 C         -6.596207   1.536342   9.067804 C.ar        1 UNL1     -0.0516
     24 O         -9.218314   3.607103   7.556762 O.3        1 UNL1     -0.5068
     25 O         -5.911932   -2.46266   8.170191 O.2        1 UNL1     -0.2917
     26 O         -5.935904   -3.369574   5.6314 O.3        1 UNL1     -0.5058
     27 O         -0.254667   -0.229028   2.536262 O.3        1 UNL1     -0.3648
     28 O         0.230993   -1.94913   -0.598633 O.3        1 UNL1     -0.3841
     29 O         -2.449964   0.408863   -0.277406 O.3        1 UNL1     -0.3863
     30 O         -2.511497   -3.26487   -0.280025 O.3        1 UNL1     -0.3829
     31 H         0.571451   -1.885689   1.793975 H        1 UNL1     0.0937
     32 H         0.0   0.0   0.0 H        1 UNL1     0.0671
     33 H         -1.878539   -1.136836   -1.447032 H        1 UNL1     0.0649
     34 H         -3.879212   -1.760378   -0.001107 H        1 UNL1     0.0683
     35 H         -3.275938   -2.909826   2.079537 H        1 UNL1     0.1085
     36 H         -4.923178   -2.916085   3.334436 H        1 UNL1     0.0691
     37 H         -2.811513   0.669378   4.481402 H        1 UNL1     0.0691
     38 H         -3.468435   -1.098169   8.977717 H        1 UNL1     0.0385
     39 H         -5.030966   -0.664968   9.698395 H        1 UNL1     0.0385
     40 H         -3.744561   1.320277   8.819013 H        1 UNL1     0.0789
     41 H         -5.374245   1.951327   5.916716 H        1 UNL1     0.0623
     42 H         -7.477353   3.211179   5.688915 H        1 UNL1     0.0654
     43 H         -8.451706   2.347594   9.78211 H        1 UNL1     0.0654
     44 H         -6.400967   1.066814   10.02711 H        1 UNL1     0.0623
     45 H         -8.965931   4.521532   7.349787 H        1 UNL1     0.2921
     46 H         -5.555854   -3.905233   6.345574 H        1 UNL1     0.2922
     47 H         0.496932   0.318234   2.268937 H        1 UNL1     0.2126
     48 H         1.166033   -1.89477   -0.322089 H        1 UNL1     0.2101
     49 H         -1.998403   0.99058   -0.90946 H        1 UNL1     0.2100
     50 H         -2.741326   -3.260211   -1.232322 H        1 UNL1     0.2102
@<TRIPOS>BOND
     1     1     2    1
     2     1     6    1
     3     2     3    1
     4     3     4    1
     5     3    29    1
     6     3    33    1
     7     4     5    1
     8     5     6    1
     9     5     7    1
    10     5    35    1
    11     7     8    1
    12     8     9   ar
    13     8    13   ar
    14     9    10   ar
    15     9    36    1
    16    10    11   ar
    17    10    26    1
    18    11    12   ar
    19    11    14    1
    20    12    13   ar
    21    12    17    1
    22    13    37    1
    23    14    15    1
    24    14    25    2
    25    15    16    1
    26    15    38    1
    27    15    39    1
    28    16    17    1
    29    16    18    1
    30    16    40    1
    31    18    19   ar
    32    18    23   ar
    33    19    20   ar
    34    19    41    1
    35    20    21   ar
    36    20    42    1
    37    21    22   ar
    38    21    24    1
    39    22    23   ar
    40    22    43    1
    41    23    44    1
    42    24    45    1
    43    26    46    1
    44    27    47    1
    45    28    48    1
    46    29    49    1
    47    30    50    1
    48     1    31    1
    49     1    27    1
    50     2    32    1
    51     2    28    1
    52     4    34    1
    53     4    30    1
