@<TRIPOS>MOLECULE
*****
 50 53 0 0 0
SMALL
GASTEIGER

@<TRIPOS>ATOM
     1 C         -0.069694   -2.148366   0.387907 C.3        1 UNL1     0.1889
     2 C         -0.490839   -0.687202   0.700281 C.3        1 UNL1     0.1342
     3 C         -0.2005   -0.229573   2.137898 C.3        1 UNL1     0.1174
     4 C         -0.36656   -1.353677   3.163536 C.3        1 UNL1     0.1456
     5 C         0.315528   -2.661304   2.721684 C.3        1 UNL1     0.2326
     6 O         -0.1977   -3.074006   1.457112 O.3        1 UNL1     -0.3076
     7 O         1.752938   -2.597885   2.755607 O.3        1 UNL1     -0.4605
     8 C         2.42015   -3.724169   2.308575 C.ar        1 UNL1     0.1310
     9 C         1.813021   -4.875478   1.795563 C.ar        1 UNL1     0.0226
     10 C         2.57812   -5.960432   1.351267 C.ar        1 UNL1     0.1343
     11 C         3.970992   -5.910821   1.387165 C.ar        1 UNL1     0.1007
     12 C         4.587815   -4.783058   1.93531 C.ar        1 UNL1     0.1389
     13 C         3.818226   -3.693352   2.384425 C.ar        1 UNL1     0.0229
     14 C         4.829393   -6.993691   0.853598 C.2        1 UNL1     0.1740
     15 C         6.294122   -6.679086   0.769075 C.3        1 UNL1     0.0520
     16 C         6.693604   -5.905514   2.018057 C.3        1 UNL1     0.1322
     17 O         5.946689   -4.67301   2.118662 O.3        1 UNL1     -0.4828
     18 C         6.695094   -6.752247   3.293112 C.ar        1 UNL1     -0.0067
     19 C         7.665231   -7.763083   3.452041 C.ar        1 UNL1     -0.0516
     20 C         7.665676   -8.586655   4.584159 C.ar        1 UNL1     -0.0198
     21 C         6.699027   -8.414674   5.558756 C.ar        1 UNL1     0.1169
     22 C         5.750833   -7.406115   5.446616 C.ar        1 UNL1     -0.0198
     23 C         5.761397   -6.570421   4.323424 C.ar        1 UNL1     -0.0516
     24 O         6.708091   -9.260172   6.629014 O.3        1 UNL1     -0.5068
     25 O         4.388586   -8.057523   0.426474 O.2        1 UNL1     -0.2917
     26 O         1.924621   -7.054092   0.862971 O.3        1 UNL1     -0.5058
     27 O         1.196959   -2.249021   -0.243161 O.3        1 UNL1     -0.3648
     28 O         -1.910119   -0.566899   0.490813 O.3        1 UNL1     -0.3841
     29 O         1.075169   0.409382   2.218752 O.3        1 UNL1     -0.3863
     30 O         -1.773964   -1.608813   3.363062 O.3        1 UNL1     -0.3829
     31 H         -0.774963   -2.523769   -0.361591 H        1 UNL1     0.0937
     32 H         0.0   0.0   0.0 H        1 UNL1     0.0671
     33 H         -0.933043   0.547641   2.396816 H        1 UNL1     0.0649
     34 H         0.042788   -1.041098   4.130556 H        1 UNL1     0.0683
     35 H         -0.023595   -3.399017   3.45969 H        1 UNL1     0.1085
     36 H         0.736559   -4.953401   1.689359 H        1 UNL1     0.0691
     37 H         4.322542   -2.82749   2.80803 H        1 UNL1     0.0691
     38 H         6.452626   -6.08011   -0.134048 H        1 UNL1     0.0385
     39 H         6.85633   -7.613142   0.663057 H        1 UNL1     0.0385
     40 H         7.7352   -5.584906   1.88092 H        1 UNL1     0.0789
     41 H         8.429064   -7.924189   2.696889 H        1 UNL1     0.0623
     42 H         8.411808   -9.370367   4.689488 H        1 UNL1     0.0654
     43 H         4.998529   -7.252937   6.211132 H        1 UNL1     0.0654
     44 H         5.012333   -5.78603   4.273621 H        1 UNL1     0.0623
     45 H         6.772569   -10.171236   6.299587 H        1 UNL1     0.2921
     46 H         0.985528   -7.003071   1.101538 H        1 UNL1     0.2922
     47 H         1.232624   -1.669246   -1.016756 H        1 UNL1     0.2126
     48 H         -2.256102   -0.023519   1.224819 H        1 UNL1     0.2101
     49 H         1.532801   0.13138   3.028124 H        1 UNL1     0.2100
     50 H         -2.105081   -2.099423   2.582437 H        1 UNL1     0.2102
@<TRIPOS>BOND
     1     1     2    1
     2     1     6    1
     3     2     3    1
     4     3     4    1
     5     3    29    1
     6     3    33    1
     7     4     5    1
     8     5     6    1
     9     5     7    1
    10     5    35    1
    11     7     8    1
    12     8     9   ar
    13     8    13   ar
    14     9    10   ar
    15     9    36    1
    16    10    11   ar
    17    10    26    1
    18    11    12   ar
    19    11    14    1
    20    12    13   ar
    21    12    17    1
    22    13    37    1
    23    14    15    1
    24    14    25    2
    25    15    16    1
    26    15    38    1
    27    15    39    1
    28    16    17    1
    29    16    18    1
    30    16    40    1
    31    18    19   ar
    32    18    23   ar
    33    19    20   ar
    34    19    41    1
    35    20    21   ar
    36    20    42    1
    37    21    22   ar
    38    21    24    1
    39    22    23   ar
    40    22    43    1
    41    23    44    1
    42    24    45    1
    43    26    46    1
    44    27    47    1
    45    28    48    1
    46    29    49    1
    47    30    50    1
    48     1    31    1
    49     1    27    1
    50     2    32    1
    51     2    28    1
    52     4    34    1
    53     4    30    1
