@<TRIPOS>MOLECULE
*****
 50 53 0 0 0
SMALL
GASTEIGER

@<TRIPOS>ATOM
     1 C         -1.309333   1.195938   -1.27522 C.3        1 UNL1     0.1889
     2 C         -0.547383   0.949184   0.054624 C.3        1 UNL1     0.1342
     3 C         -1.433136   0.945311   1.309969 C.3        1 UNL1     0.1174
     4 C         -2.596304   1.936181   1.218676 C.3        1 UNL1     0.1456
     5 C         -3.33656   1.854839   -0.128828 C.3        1 UNL1     0.2326
     6 O         -2.421782   2.075254   -1.200027 O.3        1 UNL1     -0.3076
     7 O         -4.111943   0.65249   -0.28522 O.3        1 UNL1     -0.4605
     8 C         -5.157963   0.718847   -1.187975 C.ar        1 UNL1     0.1310
     9 C         -6.085616   1.762224   -1.27811 C.ar        1 UNL1     0.0226
     10 C         -7.102121   1.745755   -2.240582 C.ar        1 UNL1     0.1343
     11 C         -7.201284   0.695909   -3.152629 C.ar        1 UNL1     0.1007
     12 C         -6.305789   -0.371581   -3.046149 C.ar        1 UNL1     0.1389
     13 C         -5.285411   -0.356056   -2.076603 C.ar        1 UNL1     0.0229
     14 C         -8.203546   0.668356   -4.24298 C.2        1 UNL1     0.1740
     15 C         -8.025006   -0.418809   -5.261678 C.3        1 UNL1     0.0520
     16 C         -7.618666   -1.695172   -4.537978 C.3        1 UNL1     0.1322
     17 O         -6.378737   -1.505693   -3.821219 O.3        1 UNL1     -0.4828
     18 C         -8.743399   -2.316801   -3.706547 C.ar        1 UNL1     -0.0067
     19 C         -9.310137   -3.541874   -4.114245 C.ar        1 UNL1     -0.0516
     20 C         -10.371955   -4.113974   -3.403466 C.ar        1 UNL1     -0.0198
     21 C         -10.879695   -3.468646   -2.290102 C.ar        1 UNL1     0.1169
     22 C         -10.32075   -2.277906   -1.844505 C.ar        1 UNL1     -0.0198
     23 C         -9.246847   -1.714901   -2.544372 C.ar        1 UNL1     -0.0516
     24 O         -11.938838   -4.036902   -1.645353 O.3        1 UNL1     -0.5068
     25 O         -9.083958   1.514701   -4.373596 O.2        1 UNL1     -0.2917
     26 O         -7.97546   2.79346   -2.274897 O.3        1 UNL1     -0.5058
     27 O         -1.630966   0.002853   -1.972276 O.3        1 UNL1     -0.3648
     28 O         0.428307   1.994516   0.222001 O.3        1 UNL1     -0.3841
     29 O         -1.859882   -0.381552   1.625332 O.3        1 UNL1     -0.3863
     30 O         -2.090196   3.277906   1.389899 O.3        1 UNL1     -0.3829
     31 H         -0.614422   1.71857   -1.941579 H        1 UNL1     0.0937
     32 H         0.0   0.0   0.0 H        1 UNL1     0.0671
     33 H         -0.812051   1.261724   2.159591 H        1 UNL1     0.0649
     34 H         -3.306583   1.755163   2.033009 H        1 UNL1     0.0683
     35 H         -4.01755   2.714917   -0.108871 H        1 UNL1     0.1085
     36 H         -6.028297   2.633353   -0.634705 H        1 UNL1     0.0691
     37 H         -4.601595   -1.199815   -2.013671 H        1 UNL1     0.0691
     38 H         -7.244951   -0.094612   -5.958771 H        1 UNL1     0.0385
     39 H         -8.957135   -0.540461   -5.823918 H        1 UNL1     0.0385
     40 H         -7.379609   -2.441553   -5.30758 H        1 UNL1     0.0789
     41 H         -8.935507   -4.063543   -4.990124 H        1 UNL1     0.0623
     42 H         -10.808242   -5.053067   -3.734783 H        1 UNL1     0.0654
     43 H         -10.700789   -1.77179   -0.965115 H        1 UNL1     0.0654
     44 H         -8.827787   -0.789184   -2.161904 H        1 UNL1     0.0623
     45 H         -11.605747   -4.507483   -0.864123 H        1 UNL1     0.2921
     46 H         -8.188005   3.007389   -3.197107 H        1 UNL1     0.2922
     47 H         -1.110988   -0.060276   -2.785601 H        1 UNL1     0.2126
     48 H         0.64998   2.316133   -0.673072 H        1 UNL1     0.2101
     49 H         -1.162056   -0.84495   2.115328 H        1 UNL1     0.2100
     50 H         -2.792984   3.902611   1.115042 H        1 UNL1     0.2102
@<TRIPOS>BOND
     1     1     2    1
     2     1     6    1
     3     2     3    1
     4     3     4    1
     5     3    29    1
     6     3    33    1
     7     4     5    1
     8     5     6    1
     9     5     7    1
    10     5    35    1
    11     7     8    1
    12     8     9   ar
    13     8    13   ar
    14     9    10   ar
    15     9    36    1
    16    10    11   ar
    17    10    26    1
    18    11    12   ar
    19    11    14    1
    20    12    13   ar
    21    12    17    1
    22    13    37    1
    23    14    15    1
    24    14    25    2
    25    15    16    1
    26    15    38    1
    27    15    39    1
    28    16    17    1
    29    16    18    1
    30    16    40    1
    31    18    19   ar
    32    18    23   ar
    33    19    20   ar
    34    19    41    1
    35    20    21   ar
    36    20    42    1
    37    21    22   ar
    38    21    24    1
    39    22    23   ar
    40    22    43    1
    41    23    44    1
    42    24    45    1
    43    26    46    1
    44    27    47    1
    45    28    48    1
    46    29    49    1
    47    30    50    1
    48     1    31    1
    49     1    27    1
    50     2    32    1
    51     2    28    1
    52     4    34    1
    53     4    30    1
