@<TRIPOS>MOLECULE
*****
 50 53 0 0 0
SMALL
GASTEIGER

@<TRIPOS>ATOM
     1 C         -0.44683   1.2633   1.724883 C.3        1 UNL1     0.1889
     2 C         0.427275   0.877252   0.501425 C.3        1 UNL1     0.1342
     3 C         1.90203   0.598097   0.829502 C.3        1 UNL1     0.1174
     4 C         2.437795   1.485646   1.955704 C.3        1 UNL1     0.1456
     5 C         1.480621   1.553655   3.15968 C.3        1 UNL1     0.2326
     6 O         0.200845   2.019282   2.737506 O.3        1 UNL1     -0.3076
     7 O         1.417123   0.328031   3.911435 O.3        1 UNL1     -0.4605
     8 C         0.364239   -0.515962   3.607069 C.ar        1 UNL1     0.1310
     9 C         -0.663505   -0.878384   4.484391 C.ar        1 UNL1     0.0226
     10 C         -1.697961   -1.72846   4.075521 C.ar        1 UNL1     0.1343
     11 C         -1.742617   -2.218179   2.770906 C.ar        1 UNL1     0.1007
     12 C         -0.700026   -1.896301   1.897874 C.ar        1 UNL1     0.1389
     13 C         0.341404   -1.043666   2.310024 C.ar        1 UNL1     0.0229
     14 C         -2.85609   -3.051595   2.261251 C.2        1 UNL1     0.1740
     15 C         -2.855178   -3.302069   0.781787 C.3        1 UNL1     0.0520
     16 C         -1.420998   -3.552563   0.336435 C.3        1 UNL1     0.1322
     17 O         -0.586871   -2.409256   0.626521 O.3        1 UNL1     -0.4828
     18 C         -0.852062   -4.89057   0.814736 C.ar        1 UNL1     -0.0067
     19 C         -1.703484   -5.81768   1.450158 C.ar        1 UNL1     -0.0516
     20 C         -1.205723   -7.030295   1.94185 C.ar        1 UNL1     -0.0198
     21 C         0.139891   -7.323672   1.811164 C.ar        1 UNL1     0.1169
     22 C         0.99696   -6.445667   1.160489 C.ar        1 UNL1     -0.0198
     23 C         0.495935   -5.241174   0.652329 C.ar        1 UNL1     -0.0516
     24 O         0.595559   -8.497313   2.335887 O.3        1 UNL1     -0.5068
     25 O         -3.776021   -3.45604   2.967392 O.2        1 UNL1     -0.2917
     26 O         -2.669408   -2.04424   4.980042 O.3        1 UNL1     -0.5058
     27 O         -1.171528   0.171683   2.268916 O.3        1 UNL1     -0.3648
     28 O         0.396651   1.964175   -0.442167 O.3        1 UNL1     -0.3841
     29 O         2.112283   -0.794013   1.074359 O.3        1 UNL1     -0.3863
     30 O         2.641838   2.822527   1.448945 O.3        1 UNL1     -0.3829
     31 H         -1.221554   1.943134   1.353795 H        1 UNL1     0.0937
     32 H         0.0   0.0   0.0 H        1 UNL1     0.0671
     33 H         2.494544   0.829464   -0.066665 H        1 UNL1     0.0649
     34 H         3.413911   1.11714   2.29007 H        1 UNL1     0.0683
     35 H         1.911112   2.337073   3.795929 H        1 UNL1     0.1085
     36 H         -0.715834   -0.486539   5.494262 H        1 UNL1     0.0691
     37 H         1.141883   -0.809248   1.611615 H        1 UNL1     0.0691
     38 H         -3.270295   -2.413044   0.295126 H        1 UNL1     0.0385
     39 H         -3.511505   -4.15076   0.561025 H        1 UNL1     0.0385
     40 H         -1.428878   -3.615497   -0.76015 H        1 UNL1     0.0789
     41 H         -2.761812   -5.606872   1.573252 H        1 UNL1     0.0623
     42 H         -1.870096   -7.731705   2.440492 H        1 UNL1     0.0654
     43 H         2.04954   -6.67218   1.039333 H        1 UNL1     0.0654
     44 H         1.191875   -4.583572   0.140399 H        1 UNL1     0.0623
     45 H         1.105762   -8.961241   1.652381 H        1 UNL1     0.2921
     46 H         -2.916125   -1.250301   5.480246 H        1 UNL1     0.2922
     47 H         -2.120845   0.299147   2.13323 H        1 UNL1     0.2126
     48 H         -0.539945   2.222606   -0.540821 H        1 UNL1     0.2101
     49 H         2.975397   -1.064301   0.722545 H        1 UNL1     0.2100
     50 H         3.033561   3.360861   2.167598 H        1 UNL1     0.2102
@<TRIPOS>BOND
     1     1     2    1
     2     1     6    1
     3     2     3    1
     4     3     4    1
     5     3    29    1
     6     3    33    1
     7     4     5    1
     8     5     6    1
     9     5     7    1
    10     5    35    1
    11     7     8    1
    12     8     9   ar
    13     8    13   ar
    14     9    10   ar
    15     9    36    1
    16    10    11   ar
    17    10    26    1
    18    11    12   ar
    19    11    14    1
    20    12    13   ar
    21    12    17    1
    22    13    37    1
    23    14    15    1
    24    14    25    2
    25    15    16    1
    26    15    38    1
    27    15    39    1
    28    16    17    1
    29    16    18    1
    30    16    40    1
    31    18    19   ar
    32    18    23   ar
    33    19    20   ar
    34    19    41    1
    35    20    21   ar
    36    20    42    1
    37    21    22   ar
    38    21    24    1
    39    22    23   ar
    40    22    43    1
    41    23    44    1
    42    24    45    1
    43    26    46    1
    44    27    47    1
    45    28    48    1
    46    29    49    1
    47    30    50    1
    48     1    31    1
    49     1    27    1
    50     2    32    1
    51     2    28    1
    52     4    34    1
    53     4    30    1
