@<TRIPOS>MOLECULE
*****
 50 53 0 0 0
SMALL
GASTEIGER

@<TRIPOS>ATOM
     1 C         -0.021711   -1.191706   1.830347 C.3        1 UNL1     0.1889
     2 C         -0.288247   -1.01161   0.311642 C.3        1 UNL1     0.1342
     3 C         -1.738938   -1.274795   -0.120441 C.3        1 UNL1     0.1174
     4 C         -2.40637   -2.389435   0.689022 C.3        1 UNL1     0.1456
     5 C         -2.170318   -2.24169   2.203226 C.3        1 UNL1     0.2326
     6 O         -0.771274   -2.210201   2.476272 O.3        1 UNL1     -0.3076
     7 O         -2.886342   -1.139814   2.790165 O.3        1 UNL1     -0.4605
     8 C         -3.29578   -1.311911   4.10023 C.ar        1 UNL1     0.1310
     9 C         -3.906163   -2.461094   4.614147 C.ar        1 UNL1     0.0226
     10 C         -4.269842   -2.545625   5.963405 C.ar        1 UNL1     0.1343
     11 C         -4.010059   -1.491057   6.837613 C.ar        1 UNL1     0.1007
     12 C         -3.438324   -0.322495   6.327354 C.ar        1 UNL1     0.1389
     13 C         -3.075149   -0.236739   4.970085 C.ar        1 UNL1     0.0229
     14 C         -4.296779   -1.559142   8.289271 C.2        1 UNL1     0.1740
     15 C         -3.751261   -0.429442   9.112519 C.3        1 UNL1     0.0520
     16 C         -3.939026   0.866795   8.33633 C.3        1 UNL1     0.1322
     17 O         -3.237675   0.815023   7.074389 O.3        1 UNL1     -0.4828
     18 C         -5.398162   1.317343   8.233113 C.ar        1 UNL1     -0.0067
     19 C         -5.74931   2.320543   7.306561 C.ar        1 UNL1     -0.0516
     20 C         -7.06569   2.789101   7.219623 C.ar        1 UNL1     -0.0198
     21 C         -8.03639   2.268929   8.056874 C.ar        1 UNL1     0.1169
     22 C         -7.728383   1.256583   8.956389 C.ar        1 UNL1     -0.0198
     23 C         -6.415956   0.774853   9.030731 C.ar        1 UNL1     -0.0516
     24 O         -9.299356   2.776586   7.969691 O.3        1 UNL1     -0.5068
     25 O         -4.87039   -2.505827   8.821476 O.2        1 UNL1     -0.2917
     26 O         -4.862647   -3.693836   6.401331 O.3        1 UNL1     -0.5058
     27 O         -0.055784   0.0254   2.55855 O.3        1 UNL1     -0.3648
     28 O         0.548013   -1.934364   -0.410783 O.3        1 UNL1     -0.3841
     29 O         -2.495551   -0.062496   -0.121519 O.3        1 UNL1     -0.3863
     30 O         -1.882715   -3.665133   0.259989 O.3        1 UNL1     -0.3829
     31 H         1.013959   -1.535228   1.927612 H        1 UNL1     0.0937
     32 H         0.0   0.0   0.0 H        1 UNL1     0.0671
     33 H         -1.72169   -1.608889   -1.167247 H        1 UNL1     0.0649
     34 H         -3.483787   -2.402053   0.490493 H        1 UNL1     0.0683
     35 H         -2.556357   -3.178696   2.623788 H        1 UNL1     0.1085
     36 H         -4.0841   -3.33605   3.99859 H        1 UNL1     0.0691
     37 H         -2.63255   0.684486   4.597332 H        1 UNL1     0.0691
     38 H         -2.689992   -0.632442   9.291479 H        1 UNL1     0.0385
     39 H         -4.263826   -0.410468   10.080349 H        1 UNL1     0.0385
     40 H         -3.429525   1.6591   8.901292 H        1 UNL1     0.0789
     41 H         -5.003812   2.75146   6.644599 H        1 UNL1     0.0623
     42 H         -7.321469   3.571421   6.509296 H        1 UNL1     0.0654
     43 H         -8.483996   0.83158   9.60626 H        1 UNL1     0.0654
     44 H         -6.213155   -0.023994   9.737527 H        1 UNL1     0.0623
     45 H         -9.276198   3.706185   8.249023 H        1 UNL1     0.2921
     46 H         -4.360968   -4.05138   7.150926 H        1 UNL1     0.2922
     47 H         0.557292   0.665133   2.170299 H        1 UNL1     0.2126
     48 H         1.469997   -1.643797   -0.272041 H        1 UNL1     0.2101
     49 H         -2.197237   0.512054   -0.844496 H        1 UNL1     0.2100
     50 H         -2.185096   -3.821657   -0.658585 H        1 UNL1     0.2102
@<TRIPOS>BOND
     1     1     2    1
     2     1     6    1
     3     2     3    1
     4     3     4    1
     5     3    29    1
     6     3    33    1
     7     4     5    1
     8     5     6    1
     9     5     7    1
    10     5    35    1
    11     7     8    1
    12     8     9   ar
    13     8    13   ar
    14     9    10   ar
    15     9    36    1
    16    10    11   ar
    17    10    26    1
    18    11    12   ar
    19    11    14    1
    20    12    13   ar
    21    12    17    1
    22    13    37    1
    23    14    15    1
    24    14    25    2
    25    15    16    1
    26    15    38    1
    27    15    39    1
    28    16    17    1
    29    16    18    1
    30    16    40    1
    31    18    19   ar
    32    18    23   ar
    33    19    20   ar
    34    19    41    1
    35    20    21   ar
    36    20    42    1
    37    21    22   ar
    38    21    24    1
    39    22    23   ar
    40    22    43    1
    41    23    44    1
    42    24    45    1
    43    26    46    1
    44    27    47    1
    45    28    48    1
    46    29    49    1
    47    30    50    1
    48     1    31    1
    49     1    27    1
    50     2    32    1
    51     2    28    1
    52     4    34    1
    53     4    30    1
