@<TRIPOS>MOLECULE
*****
 50 53 0 0 0
SMALL
GASTEIGER

@<TRIPOS>ATOM
     1 C         -0.330155   -1.32714   1.703086 C.3        1 UNL1     0.1889
     2 C         -0.461529   -0.975629   0.196726 C.3        1 UNL1     0.1342
     3 C         -1.902585   -0.964803   -0.335914 C.3        1 UNL1     0.1174
     4 C         -2.787704   -2.024263   0.325318 C.3        1 UNL1     0.1456
     5 C         -2.635459   -2.048142   1.857184 C.3        1 UNL1     0.2326
     6 O         -1.270235   -2.264729   2.206645 O.3        1 UNL1     -0.3076
     7 O         -3.211123   -0.901029   2.508386 O.3        1 UNL1     -0.4605
     8 C         -3.719959   -1.115785   3.776651 C.ar        1 UNL1     0.1310
     9 C         -4.535054   -2.189215   4.151711 C.ar        1 UNL1     0.0226
     10 C         -4.987183   -2.3288   5.469283 C.ar        1 UNL1     0.1343
     11 C         -4.615248   -1.410356   6.450082 C.ar        1 UNL1     0.1007
     12 C         -3.83537   -0.311858   6.078764 C.ar        1 UNL1     0.1389
     13 C         -3.383065   -0.170298   4.753316 C.ar        1 UNL1     0.0229
     14 C         -4.995013   -1.555218   7.874493 C.2        1 UNL1     0.1740
     15 C         -4.326505   -0.605419   8.824509 C.3        1 UNL1     0.0520
     16 C         -4.258914   0.766008   8.166804 C.3        1 UNL1     0.1322
     17 O         -3.500932   0.708748   6.938287 O.3        1 UNL1     -0.4828
     18 C         -5.618913   1.456964   8.041466 C.ar        1 UNL1     -0.0067
     19 C         -5.99922   2.018241   6.805121 C.ar        1 UNL1     -0.0516
     20 C         -7.215237   2.698436   6.668739 C.ar        1 UNL1     -0.0198
     21 C         -8.054482   2.830255   7.760581 C.ar        1 UNL1     0.1169
     22 C         -7.722958   2.259529   8.982548 C.ar        1 UNL1     -0.0198
     23 C         -6.51547   1.563369   9.114432 C.ar        1 UNL1     -0.0516
     24 O         -9.212961   3.531958   7.599525 O.3        1 UNL1     -0.5068
     25 O         -5.742709   -2.437259   8.288544 O.2        1 UNL1     -0.2917
     26 O         -5.780279   -3.397614   5.769649 O.3        1 UNL1     -0.5058
     27 O         -0.22549   -0.188099   2.542382 O.3        1 UNL1     -0.3648
     28 O         0.269536   -1.954094   -0.565413 O.3        1 UNL1     -0.3841
     29 O         -2.461121   0.348402   -0.260666 O.3        1 UNL1     -0.3863
     30 O         -2.439249   -3.325214   -0.196024 O.3        1 UNL1     -0.3829
     31 H         0.630997   -1.839078   1.822185 H        1 UNL1     0.0937
     32 H         0.0   0.0   0.0 H        1 UNL1     0.0671
     33 H         -1.865796   -1.205247   -1.407619 H        1 UNL1     0.0649
     34 H         -3.838081   -1.847049   0.068991 H        1 UNL1     0.0683
     35 H         -3.189285   -2.944216   2.164113 H        1 UNL1     0.1085
     36 H         -4.813118   -2.966848   3.448798 H        1 UNL1     0.0691
     37 H         -2.778017   0.694484   4.48957 H        1 UNL1     0.0691
     38 H         -3.323664   -0.994376   9.030785 H        1 UNL1     0.0385
     39 H         -4.886174   -0.586032   9.765877 H        1 UNL1     0.0385
     40 H         -3.664264   1.412395   8.826422 H        1 UNL1     0.0789
     41 H         -5.353841   1.93632   5.935394 H        1 UNL1     0.0623
     42 H         -7.491795   3.137136   5.713192 H        1 UNL1     0.0654
     43 H         -8.379749   2.343804   9.840122 H        1 UNL1     0.0654
     44 H         -6.293336   1.121147   10.080838 H        1 UNL1     0.0623
     45 H         -8.988003   4.439193   7.336783 H        1 UNL1     0.2921
     46 H         -5.374907   -3.909767   6.487134 H        1 UNL1     0.2922
     47 H         0.517006   0.365949   2.263831 H        1 UNL1     0.2126
     48 H         1.202392   -1.88771   -0.284156 H        1 UNL1     0.2101
     49 H         -2.022954   0.930612   -0.901631 H        1 UNL1     0.2100
     50 H         -2.672872   -3.34129   -1.147273 H        1 UNL1     0.2102
@<TRIPOS>BOND
     1     1     2    1
     2     1     6    1
     3     2     3    1
     4     3     4    1
     5     3    29    1
     6     3    33    1
     7     4     5    1
     8     5     6    1
     9     5     7    1
    10     5    35    1
    11     7     8    1
    12     8     9   ar
    13     8    13   ar
    14     9    10   ar
    15     9    36    1
    16    10    11   ar
    17    10    26    1
    18    11    12   ar
    19    11    14    1
    20    12    13   ar
    21    12    17    1
    22    13    37    1
    23    14    15    1
    24    14    25    2
    25    15    16    1
    26    15    38    1
    27    15    39    1
    28    16    17    1
    29    16    18    1
    30    16    40    1
    31    18    19   ar
    32    18    23   ar
    33    19    20   ar
    34    19    41    1
    35    20    21   ar
    36    20    42    1
    37    21    22   ar
    38    21    24    1
    39    22    23   ar
    40    22    43    1
    41    23    44    1
    42    24    45    1
    43    26    46    1
    44    27    47    1
    45    28    48    1
    46    29    49    1
    47    30    50    1
    48     1    31    1
    49     1    27    1
    50     2    32    1
    51     2    28    1
    52     4    34    1
    53     4    30    1
