@<TRIPOS>MOLECULE
*****
 50 53 0 0 0
SMALL
GASTEIGER

@<TRIPOS>ATOM
     1 C         0.245563   -1.760391   1.269459 C.3        1 UNL1     0.1889
     2 C         -0.331747   -1.04555   0.018198 C.3        1 UNL1     0.1342
     3 C         -1.863416   -1.087316   -0.09455 C.3        1 UNL1     0.1174
     4 C         -2.462318   -2.391765   0.437282 C.3        1 UNL1     0.1456
     5 C         -1.875572   -2.797495   1.801641 C.3        1 UNL1     0.2326
     6 O         -0.457813   -2.914228   1.705713 O.3        1 UNL1     -0.3076
     7 O         -2.301609   -1.949719   2.88381 O.3        1 UNL1     -0.4605
     8 C         -2.412826   -2.556771   4.121811 C.ar        1 UNL1     0.1310
     9 C         -3.026581   -3.789744   4.36754 C.ar        1 UNL1     0.0226
     10 C         -3.073497   -4.330409   5.658037 C.ar        1 UNL1     0.1343
     11 C         -2.486262   -3.661705   6.731271 C.ar        1 UNL1     0.1007
     12 C         -1.906476   -2.410458   6.505411 C.ar        1 UNL1     0.1389
     13 C         -1.861758   -1.865807   5.208188 C.ar        1 UNL1     0.0229
     14 C         -2.433032   -4.225915   8.099842 C.2        1 UNL1     0.1740
     15 C         -1.572675   -3.479639   9.07678 C.3        1 UNL1     0.0520
     16 C         -1.771108   -1.987067   8.851368 C.3        1 UNL1     0.1322
     17 O         -1.395435   -1.617193   7.506328 O.3        1 UNL1     -0.4828
     18 C         -3.145308   -1.475048   9.289698 C.ar        1 UNL1     -0.0067
     19 C         -3.892939   -0.661462   8.413718 C.ar        1 UNL1     -0.0516
     20 C         -5.131967   -0.137619   8.801481 C.ar        1 UNL1     -0.0198
     21 C         -5.629765   -0.413358   10.06243 C.ar        1 UNL1     0.1169
     22 C         -4.932409   -1.238642   10.935035 C.ar        1 UNL1     -0.0198
     23 C         -3.701968   -1.77767   10.540676 C.ar        1 UNL1     -0.0516
     24 O         -6.82196   0.145232   10.418869 O.3        1 UNL1     -0.5068
     25 O         -2.981525   -5.277321   8.419506 O.2        1 UNL1     -0.2917
     26 O         -3.687887   -5.536366   5.830592 O.3        1 UNL1     -0.5058
     27 O         0.5246   -0.879045   2.345636 O.3        1 UNL1     -0.3648
     28 O         0.201866   -1.68225   -1.157632 O.3        1 UNL1     -0.3841
     29 O         -2.447494   0.07305   0.50088 O.3        1 UNL1     -0.3863
     30 O         -2.207904   -3.451032   -0.51083 O.3        1 UNL1     -0.3829
     31 H         1.226836   -2.152606   0.980757 H        1 UNL1     0.0937
     32 H         0.0   0.0   0.0 H        1 UNL1     0.0671
     33 H         -2.122856   -1.030034   -1.160913 H        1 UNL1     0.0649
     34 H         -3.55009   -2.295149   0.525706 H        1 UNL1     0.0683
     35 H         -2.268277   -3.808361   1.968411 H        1 UNL1     0.1085
     36 H         -3.451965   -4.384607   3.566724 H        1 UNL1     0.0691
     37 H         -1.405648   -0.889487   5.059009 H        1 UNL1     0.0691
     38 H         -0.533244   -3.772014   8.893402 H        1 UNL1     0.0385
     39 H         -1.838986   -3.783641   10.094836 H        1 UNL1     0.0385
     40 H         -1.048226   -1.464026   9.491985 H        1 UNL1     0.0789
     41 H         -3.519787   -0.422857   7.422015 H        1 UNL1     0.0623
     42 H         -5.693437   0.498176   8.121387 H        1 UNL1     0.0654
     43 H         -5.320081   -1.473291   11.91919 H        1 UNL1     0.0654
     44 H         -3.189271   -2.426957   11.24382 H        1 UNL1     0.0623
     45 H         -6.728798   1.111262   10.390162 H        1 UNL1     0.2921
     46 H         -3.067385   -6.159943   6.239909 H        1 UNL1     0.2922
     47 H         1.122196   -0.175598   2.055978 H        1 UNL1     0.2126
     48 H         1.170582   -1.562813   -1.125138 H        1 UNL1     0.2101
     49 H         -2.244432   0.856485   -0.034647 H        1 UNL1     0.2100
     50 H         -2.703586   -3.247172   -1.330862 H        1 UNL1     0.2102
@<TRIPOS>BOND
     1     1     2    1
     2     1     6    1
     3     2     3    1
     4     3     4    1
     5     3    29    1
     6     3    33    1
     7     4     5    1
     8     5     6    1
     9     5     7    1
    10     5    35    1
    11     7     8    1
    12     8     9   ar
    13     8    13   ar
    14     9    10   ar
    15     9    36    1
    16    10    11   ar
    17    10    26    1
    18    11    12   ar
    19    11    14    1
    20    12    13   ar
    21    12    17    1
    22    13    37    1
    23    14    15    1
    24    14    25    2
    25    15    16    1
    26    15    38    1
    27    15    39    1
    28    16    17    1
    29    16    18    1
    30    16    40    1
    31    18    19   ar
    32    18    23   ar
    33    19    20   ar
    34    19    41    1
    35    20    21   ar
    36    20    42    1
    37    21    22   ar
    38    21    24    1
    39    22    23   ar
    40    22    43    1
    41    23    44    1
    42    24    45    1
    43    26    46    1
    44    27    47    1
    45    28    48    1
    46    29    49    1
    47    30    50    1
    48     1    31    1
    49     1    27    1
    50     2    32    1
    51     2    28    1
    52     4    34    1
    53     4    30    1
