@<TRIPOS>MOLECULE
*****
 50 53 0 0 0
SMALL
GASTEIGER

@<TRIPOS>ATOM
     1 C         -1.12059   0.752386   1.717265 C.3        1 UNL1     0.1889
     2 C         0.209055   0.482419   0.962876 C.3        1 UNL1     0.1342
     3 C         1.225557   -0.368528   1.739457 C.3        1 UNL1     0.1174
     4 C         1.192759   -0.103702   3.246742 C.3        1 UNL1     0.1456
     5 C         -0.239462   -0.082427   3.811236 C.3        1 UNL1     0.2326
     6 O         -1.017443   0.896494   3.126161 O.3        1 UNL1     -0.3076
     7 O         -0.862405   -1.379444   3.842988 O.3        1 UNL1     -0.4605
     8 C         -1.055708   -1.928554   5.097835 C.ar        1 UNL1     0.1310
     9 C         -0.490542   -3.123864   5.555135 C.ar        1 UNL1     0.0226
     10 C         -0.73369   -3.589446   6.852831 C.ar        1 UNL1     0.1343
     11 C         -1.529529   -2.858124   7.733541 C.ar        1 UNL1     0.1007
     12 C         -2.132591   -1.683905   7.274946 C.ar        1 UNL1     0.1389
     13 C         -1.890084   -1.217335   5.969215 C.ar        1 UNL1     0.0229
     14 C         -1.751531   -3.260338   9.141764 C.2        1 UNL1     0.1740
     15 C         -2.445457   -2.247628   10.004569 C.3        1 UNL1     0.0520
     16 C         -3.556937   -1.600939   9.189484 C.3        1 UNL1     0.1322
     17 O         -3.019609   -0.943   8.020952 O.3        1 UNL1     -0.4828
     18 C         -4.736155   -2.534588   8.905819 C.ar        1 UNL1     -0.0067
     19 C         -6.025648   -2.176072   9.349541 C.ar        1 UNL1     -0.0516
     20 C         -7.117463   -3.028974   9.148391 C.ar        1 UNL1     -0.0198
     21 C         -6.931936   -4.243658   8.512821 C.ar        1 UNL1     0.1169
     22 C         -5.68042   -4.60979   8.034811 C.ar        1 UNL1     -0.0198
     23 C         -4.591938   -3.748877   8.219452 C.ar        1 UNL1     -0.0516
     24 O         -8.011437   -5.064771   8.368414 O.3        1 UNL1     -0.5068
     25 O         -1.334369   -4.312736   9.618125 O.2        1 UNL1     -0.2917
     26 O         -0.153329   -4.763056   7.236763 O.3        1 UNL1     -0.5058
     27 O         -2.165673   -0.136827   1.356861 O.3        1 UNL1     -0.3648
     28 O         0.836914   1.746408   0.678571 O.3        1 UNL1     -0.3841
     29 O         1.078869   -1.753066   1.417479 O.3        1 UNL1     -0.3863
     30 O         1.81734   1.169952   3.517655 O.3        1 UNL1     -0.3829
     31 H         -1.475161   1.73411   1.384735 H        1 UNL1     0.0937
     32 H         0.0   -0.0   0.0 H        1 UNL1     0.0671
     33 H         2.230308   -0.09259   1.390094 H        1 UNL1     0.0649
     34 H         1.777703   -0.86599   3.773201 H        1 UNL1     0.0683
     35 H         -0.11264   0.27447   4.841003 H        1 UNL1     0.1085
     36 H         0.181863   -3.709494   4.937859 H        1 UNL1     0.0691
     37 H         -2.372439   -0.300928   5.636011 H        1 UNL1     0.0691
     38 H         -1.6991   -1.507335   10.311887 H        1 UNL1     0.0385
     39 H         -2.826287   -2.743153   10.904126 H        1 UNL1     0.0385
     40 H         -3.971648   -0.785456   9.797367 H        1 UNL1     0.0789
     41 H         -6.195718   -1.232157   9.859198 H        1 UNL1     0.0623
     42 H         -8.104641   -2.746511   9.50575 H        1 UNL1     0.0654
     43 H         -5.526869   -5.551997   7.522389 H        1 UNL1     0.0654
     44 H         -3.63064   -4.062219   7.823766 H        1 UNL1     0.0623
     45 H         -8.220349   -5.133248   7.422695 H        1 UNL1     0.2921
     46 H         -0.824102   -5.341112   7.633408 H        1 UNL1     0.2922
     47 H         -2.966335   0.065833   1.860577 H        1 UNL1     0.2126
     48 H         0.176457   2.286037   0.20283 H        1 UNL1     0.2101
     49 H         0.211206   -2.070754   1.714176 H        1 UNL1     0.2100
     50 H         1.188219   1.70917   4.040305 H        1 UNL1     0.2102
@<TRIPOS>BOND
     1     1     2    1
     2     1     6    1
     3     2     3    1
     4     3     4    1
     5     3    29    1
     6     3    33    1
     7     4     5    1
     8     5     6    1
     9     5     7    1
    10     5    35    1
    11     7     8    1
    12     8     9   ar
    13     8    13   ar
    14     9    10   ar
    15     9    36    1
    16    10    11   ar
    17    10    26    1
    18    11    12   ar
    19    11    14    1
    20    12    13   ar
    21    12    17    1
    22    13    37    1
    23    14    15    1
    24    14    25    2
    25    15    16    1
    26    15    38    1
    27    15    39    1
    28    16    17    1
    29    16    18    1
    30    16    40    1
    31    18    19   ar
    32    18    23   ar
    33    19    20   ar
    34    19    41    1
    35    20    21   ar
    36    20    42    1
    37    21    22   ar
    38    21    24    1
    39    22    23   ar
    40    22    43    1
    41    23    44    1
    42    24    45    1
    43    26    46    1
    44    27    47    1
    45    28    48    1
    46    29    49    1
    47    30    50    1
    48     1    31    1
    49     1    27    1
    50     2    32    1
    51     2    28    1
    52     4    34    1
    53     4    30    1
