@<TRIPOS>MOLECULE
*****
 50 53 0 0 0
SMALL
GASTEIGER

@<TRIPOS>ATOM
     1 C         -0.332281   -1.328201   1.701845 C.3        1 UNL1     0.1889
     2 C         -0.462562   -0.975345   0.195704 C.3        1 UNL1     0.1342
     3 C         -1.90334   -0.962706   -0.337647 C.3        1 UNL1     0.1174
     4 C         -2.789806   -2.021852   0.322282 C.3        1 UNL1     0.1456
     5 C         -2.638352   -2.047116   1.854205 C.3        1 UNL1     0.2326
     6 O         -1.273512   -2.265295   2.204173 O.3        1 UNL1     -0.3076
     7 O         -3.213243   -0.89998   2.506048 O.3        1 UNL1     -0.4605
     8 C         -4.126925   -1.167567   3.509597 C.ar        1 UNL1     0.1310
     9 C         -5.170267   -2.096143   3.429074 C.ar        1 UNL1     0.0226
     10 C         -6.035394   -2.308163   4.509123 C.ar        1 UNL1     0.1343
     11 C         -5.863335   -1.613186   5.705469 C.ar        1 UNL1     0.1007
     12 C         -4.850382   -0.653719   5.783781 C.ar        1 UNL1     0.1389
     13 C         -3.982277   -0.438821   4.696747 C.ar        1 UNL1     0.0229
     14 C         -6.695701   -1.858194   6.906006 C.2        1 UNL1     0.1740
     15 C         -6.231628   -1.187806   8.165675 C.3        1 UNL1     0.0520
     16 C         -5.752648   0.214618   7.81676 C.3        1 UNL1     0.1322
     17 O         -4.659327   0.163301   6.873847 O.3        1 UNL1     -0.4828
     18 C         -6.881471   1.17227   7.427676 C.ar        1 UNL1     -0.0067
     19 C         -6.757139   1.950703   6.258575 C.ar        1 UNL1     -0.0516
     20 C         -7.749348   2.870694   5.899268 C.ar        1 UNL1     -0.0198
     21 C         -8.864668   3.026523   6.702763 C.ar        1 UNL1     0.1169
     22 C         -9.031434   2.250433   7.842374 C.ar        1 UNL1     -0.0198
     23 C         -8.048145   1.317198   8.192046 C.ar        1 UNL1     -0.0516
     24 O         -9.791937   3.959122   6.341056 O.3        1 UNL1     -0.5068
     25 O         -7.659773   -2.619076   6.916516 O.2        1 UNL1     -0.2917
     26 O         -7.033585   -3.227202   4.365713 O.3        1 UNL1     -0.5058
     27 O         -0.226945   -0.189941   2.542115 O.3        1 UNL1     -0.3648
     28 O         0.267946   -1.953893   -0.566861 O.3        1 UNL1     -0.3841
     29 O         -2.460654   0.350973   -0.261616 O.3        1 UNL1     -0.3863
     30 O         -2.442337   -3.322713   -0.199939 O.3        1 UNL1     -0.3829
     31 H         0.62832   -1.841157   1.82101 H        1 UNL1     0.0937
     32 H         0.0   0.0   0.0 H        1 UNL1     0.0671
     33 H         -1.866244   -1.202317   -1.409529 H        1 UNL1     0.0649
     34 H         -3.839884   -1.843422   0.065573 H        1 UNL1     0.0683
     35 H         -3.193191   -2.942908   2.16013 H        1 UNL1     0.1085
     36 H         -5.322237   -2.70798   2.546645 H        1 UNL1     0.0691
     37 H         -3.202302   0.314676   4.782629 H        1 UNL1     0.0691
     38 H         -5.417587   -1.791171   8.581384 H        1 UNL1     0.0385
     39 H         -7.053286   -1.176486   8.889918 H        1 UNL1     0.0385
     40 H         -5.310304   0.641437   8.727077 H        1 UNL1     0.0789
     41 H         -5.886906   1.853601   5.615989 H        1 UNL1     0.0623
     42 H         -7.63627   3.473638   5.001669 H        1 UNL1     0.0654
     43 H         -9.908094   2.353639   8.470646 H        1 UNL1     0.0654
     44 H         -8.216137   0.720262   9.083277 H        1 UNL1     0.0623
     45 H         -9.362115   4.829624   6.327099 H        1 UNL1     0.2921
     46 H         -6.961146   -3.895369   5.065512 H        1 UNL1     0.2922
     47 H         0.516116   0.363708   2.264279 H        1 UNL1     0.2126
     48 H         1.200844   -1.888143   -0.285595 H        1 UNL1     0.2101
     49 H         -2.021668   0.933259   -0.901949 H        1 UNL1     0.2100
     50 H         -2.675498   -3.337795   -1.151318 H        1 UNL1     0.2102
@<TRIPOS>BOND
     1     1     2    1
     2     1     6    1
     3     2     3    1
     4     3     4    1
     5     3    29    1
     6     3    33    1
     7     4     5    1
     8     5     6    1
     9     5     7    1
    10     5    35    1
    11     7     8    1
    12     8     9   ar
    13     8    13   ar
    14     9    10   ar
    15     9    36    1
    16    10    11   ar
    17    10    26    1
    18    11    12   ar
    19    11    14    1
    20    12    13   ar
    21    12    17    1
    22    13    37    1
    23    14    15    1
    24    14    25    2
    25    15    16    1
    26    15    38    1
    27    15    39    1
    28    16    17    1
    29    16    18    1
    30    16    40    1
    31    18    19   ar
    32    18    23   ar
    33    19    20   ar
    34    19    41    1
    35    20    21   ar
    36    20    42    1
    37    21    22   ar
    38    21    24    1
    39    22    23   ar
    40    22    43    1
    41    23    44    1
    42    24    45    1
    43    26    46    1
    44    27    47    1
    45    28    48    1
    46    29    49    1
    47    30    50    1
    48     1    31    1
    49     1    27    1
    50     2    32    1
    51     2    28    1
    52     4    34    1
    53     4    30    1
