@<TRIPOS>MOLECULE
*****
 50 53 0 0 0
SMALL
GASTEIGER

@<TRIPOS>ATOM
     1 C         -0.335044   -1.329408   1.70036 C.3        1 UNL1     0.1889
     2 C         -0.464156   -0.974824   0.194525 C.3        1 UNL1     0.1342
     3 C         -1.904692   -0.959408   -0.339407 C.3        1 UNL1     0.1174
     4 C         -2.793072   -2.017846   0.319083 C.3        1 UNL1     0.1456
     5 C         -2.64229   -2.044898   1.851041 C.3        1 UNL1     0.2326
     6 O         -1.277935   -2.265549   2.20135 O.3        1 UNL1     -0.3076
     7 O         -3.21567   -0.897532   2.503811 O.3        1 UNL1     -0.4605
     8 C         -3.726204   -1.113321   3.771217 C.ar        1 UNL1     0.1310
     9 C         -4.544334   -2.185382   4.143574 C.ar        1 UNL1     0.0226
     10 C         -4.998018   -2.326232   5.460478 C.ar        1 UNL1     0.1343
     11 C         -4.624679   -1.410514   6.443289 C.ar        1 UNL1     0.1007
     12 C         -3.841707   -0.313304   6.074687 C.ar        1 UNL1     0.1389
     13 C         -3.387834   -0.170464   4.749912 C.ar        1 UNL1     0.0229
     14 C         -5.00611   -1.557017   7.867087 C.2        1 UNL1     0.1740
     15 C         -4.336091   -0.610634   8.819444 C.3        1 UNL1     0.0520
     16 C         -4.264457   0.761816   8.164304 C.3        1 UNL1     0.1322
     17 O         -3.505495   0.704891   6.936376 O.3        1 UNL1     -0.4828
     18 C         -5.622601   1.456412   8.038987 C.ar        1 UNL1     -0.0067
     19 C         -6.000366   2.020895   6.803323 C.ar        1 UNL1     -0.0516
     20 C         -7.214547   2.704389   6.667074 C.ar        1 UNL1     -0.0198
     21 C         -8.054458   2.836325   7.75839 C.ar        1 UNL1     0.1169
     22 C         -7.725486   2.262542   8.979614 C.ar        1 UNL1     -0.0198
     23 C         -6.519871   1.563113   9.111328 C.ar        1 UNL1     -0.0516
     24 O         -9.211025   3.541227   7.597559 O.3        1 UNL1     -0.5068
     25 O         -5.756396   -2.437931   8.278847 O.2        1 UNL1     -0.2917
     26 O         -5.794069   -3.393597   5.758169 O.3        1 UNL1     -0.5058
     27 O         -0.22829   -0.192165   2.541828 O.3        1 UNL1     -0.3648
     28 O         0.265149   -1.953731   -0.568732 O.3        1 UNL1     -0.3841
     29 O         -2.459999   0.355056   -0.262273 O.3        1 UNL1     -0.3863
     30 O         -2.447406   -3.318715   -0.204314 O.3        1 UNL1     -0.3829
     31 H         0.624711   -1.843975   1.819401 H        1 UNL1     0.0937
     32 H         0.0   0.0   0.0 H        1 UNL1     0.0671
     33 H         -1.867525   -1.19799   -1.411516 H        1 UNL1     0.0649
     34 H         -3.842766   -1.837527   0.062123 H        1 UNL1     0.0683
     35 H         -3.198645   -2.940137   2.15583 H        1 UNL1     0.1085
     36 H         -4.823705   -2.961032   3.43899 H        1 UNL1     0.0691
     37 H         -2.780376   0.693275   4.488296 H        1 UNL1     0.0691
     38 H         -3.334419   -1.002483   9.025923 H        1 UNL1     0.0385
     39 H         -4.896572   -0.591556   9.760335 H        1 UNL1     0.0385
     40 H         -3.66879   1.405504   8.825642 H        1 UNL1     0.0789
     41 H         -5.354398   1.938939   5.934037 H        1 UNL1     0.0623
     42 H         -7.489127   3.145522   5.712078 H        1 UNL1     0.0654
     43 H         -8.382849   2.346904   9.836742 H        1 UNL1     0.0654
     44 H         -6.299732   1.118574   10.077128 H        1 UNL1     0.0623
     45 H         -8.983518   4.448657   7.337698 H        1 UNL1     0.2921
     46 H         -5.391071   -3.907588   6.475678 H        1 UNL1     0.2922
     47 H         0.51585   0.360523   2.264965 H        1 UNL1     0.2126
     48 H         1.197911   -1.890202   -0.286504 H        1 UNL1     0.2101
     49 H         -2.019844   0.937309   -0.901835 H        1 UNL1     0.2100
     50 H         -2.680197   -3.332471   -1.155804 H        1 UNL1     0.2102
@<TRIPOS>BOND
     1     1     2    1
     2     1     6    1
     3     2     3    1
     4     3     4    1
     5     3    29    1
     6     3    33    1
     7     4     5    1
     8     5     6    1
     9     5     7    1
    10     5    35    1
    11     7     8    1
    12     8     9   ar
    13     8    13   ar
    14     9    10   ar
    15     9    36    1
    16    10    11   ar
    17    10    26    1
    18    11    12   ar
    19    11    14    1
    20    12    13   ar
    21    12    17    1
    22    13    37    1
    23    14    15    1
    24    14    25    2
    25    15    16    1
    26    15    38    1
    27    15    39    1
    28    16    17    1
    29    16    18    1
    30    16    40    1
    31    18    19   ar
    32    18    23   ar
    33    19    20   ar
    34    19    41    1
    35    20    21   ar
    36    20    42    1
    37    21    22   ar
    38    21    24    1
    39    22    23   ar
    40    22    43    1
    41    23    44    1
    42    24    45    1
    43    26    46    1
    44    27    47    1
    45    28    48    1
    46    29    49    1
    47    30    50    1
    48     1    31    1
    49     1    27    1
    50     2    32    1
    51     2    28    1
    52     4    34    1
    53     4    30    1
