@<TRIPOS>MOLECULE
*****
 50 53 0 0 0
SMALL
GASTEIGER

@<TRIPOS>ATOM
     1 C         -0.390485   -1.381193   1.6464 C.3        1 UNL1     0.1889
     2 C         -0.492278   -0.96835   0.15337 C.3        1 UNL1     0.1342
     3 C         -1.925478   -0.894351   -0.395199 C.3        1 UNL1     0.1174
     4 C         -2.849516   -1.951713   0.214112 C.3        1 UNL1     0.1456
     5 C         -2.717627   -2.038907   1.745571 C.3        1 UNL1     0.2326
     6 O         -1.363884   -2.309142   2.102251 O.3        1 UNL1     -0.3076
     7 O         -3.267852   -0.901086   2.434001 O.3        1 UNL1     -0.4605
     8 C         -3.809529   -1.151332   3.681995 C.ar        1 UNL1     0.1310
     9 C         -4.893733   -1.997038   3.940031 C.ar        1 UNL1     0.0226
     10 C         -5.359415   -2.19922   5.244701 C.ar        1 UNL1     0.1343
     11 C         -4.736449   -1.578518   6.32659 C.ar        1 UNL1     0.1007
     12 C         -3.678873   -0.699736   6.077477 C.ar        1 UNL1     0.1389
     13 C         -3.212506   -0.494556   4.765291 C.ar        1 UNL1     0.0229
     14 C         -5.133639   -1.821888   7.732707 C.2        1 UNL1     0.1740
     15 C         -4.217584   -1.249894   8.774443 C.3        1 UNL1     0.0520
     16 C         -3.76709   0.129832   8.314693 C.3        1 UNL1     0.1322
     17 O         -3.063538   0.046428   7.055675 O.3        1 UNL1     -0.4828
     18 C         -4.875603   1.184552   8.353274 C.ar        1 UNL1     -0.0067
     19 C         -5.626122   1.443383   7.187967 C.ar        1 UNL1     -0.0516
     20 C         -6.614942   2.434367   7.175758 C.ar        1 UNL1     -0.0198
     21 C         -6.857198   3.176745   8.317693 C.ar        1 UNL1     0.1169
     22 C         -6.157696   2.922451   9.490241 C.ar        1 UNL1     -0.0198
     23 C         -5.18158   1.918988   9.507993 C.ar        1 UNL1     -0.0516
     24 O         -7.801603   4.159008   8.257181 O.3        1 UNL1     -0.5068
     25 O         -6.098655   -2.51077   8.053131 O.2        1 UNL1     -0.2917
     26 O         -6.421639   -3.035575   5.428481 O.3        1 UNL1     -0.5058
     27 O         -0.263365   -0.27883   2.530381 O.3        1 UNL1     -0.3648
     28 O         0.219607   -1.938071   -0.637559 O.3        1 UNL1     -0.3841
     29 O         -2.446373   0.430979   -0.275614 O.3        1 UNL1     -0.3863
     30 O         -2.532535   -3.241441   -0.353174 O.3        1 UNL1     -0.3829
     31 H         0.553719   -1.925602   1.756752 H        1 UNL1     0.0937
     32 H         0.0   0.0   0.0 H        1 UNL1     0.0671
     33 H         -1.882024   -1.094445   -1.474918 H        1 UNL1     0.0649
     34 H         -3.890912   -1.733717   -0.04737 H        1 UNL1     0.0683
     35 H         -3.301244   -2.929292   2.011062 H        1 UNL1     0.1085
     36 H         -5.385137   -2.5519   3.148342 H        1 UNL1     0.0691
     37 H         -2.388313   0.195492   4.597854 H        1 UNL1     0.0691
     38 H         -3.365311   -1.930279   8.87561 H        1 UNL1     0.0385
     39 H         -4.743369   -1.215129   9.734714 H        1 UNL1     0.0385
     40 H         -3.009648   0.478042   9.029922 H        1 UNL1     0.0789
     41 H         -5.448771   0.880645   6.276089 H        1 UNL1     0.0623
     42 H         -7.178719   2.632612   6.267537 H        1 UNL1     0.0654
     43 H         -6.349821   3.487644   10.394428 H        1 UNL1     0.0654
     44 H         -4.661729   1.740127   10.444267 H        1 UNL1     0.0623
     45 H         -7.937143   4.39718   7.32572 H        1 UNL1     0.2921
     46 H         -6.871349   -3.17848   4.580689 H        1 UNL1     0.2922
     47 H         0.459253   0.297579   2.24501 H        1 UNL1     0.2126
     48 H         1.170755   -1.787614   -0.475039 H        1 UNL1     0.2101
     49 H         -3.002169   0.496833   0.517196 H        1 UNL1     0.2100
     50 H         -2.780671   -3.223273   -1.300703 H        1 UNL1     0.2102
@<TRIPOS>BOND
     1     1     2    1
     2     1     6    1
     3     2     3    1
     4     3     4    1
     5     3    29    1
     6     3    33    1
     7     4     5    1
     8     5     6    1
     9     5     7    1
    10     5    35    1
    11     7     8    1
    12     8     9   ar
    13     8    13   ar
    14     9    10   ar
    15     9    36    1
    16    10    11   ar
    17    10    26    1
    18    11    12   ar
    19    11    14    1
    20    12    13   ar
    21    12    17    1
    22    13    37    1
    23    14    15    1
    24    14    25    2
    25    15    16    1
    26    15    38    1
    27    15    39    1
    28    16    17    1
    29    16    18    1
    30    16    40    1
    31    18    19   ar
    32    18    23   ar
    33    19    20   ar
    34    19    41    1
    35    20    21   ar
    36    20    42    1
    37    21    22   ar
    38    21    24    1
    39    22    23   ar
    40    22    43    1
    41    23    44    1
    42    24    45    1
    43    26    46    1
    44    27    47    1
    45    28    48    1
    46    29    49    1
    47    30    50    1
    48     1    31    1
    49     1    27    1
    50     2    32    1
    51     2    28    1
    52     4    34    1
    53     4    30    1
