@<TRIPOS>MOLECULE
*****
 50 53 0 0 0
SMALL
GASTEIGER

@<TRIPOS>ATOM
     1 C         -0.332119   -1.328332   1.701774 C.3        1 UNL1     0.1889
     2 C         -0.462524   -0.97537   0.195669 C.3        1 UNL1     0.1342
     3 C         -1.903343   -0.962728   -0.337572 C.3        1 UNL1     0.1174
     4 C         -2.789732   -2.021943   0.322349 C.3        1 UNL1     0.1456
     5 C         -2.638161   -2.047314   1.854258 C.3        1 UNL1     0.2326
     6 O         -1.273288   -2.265486   2.204106 O.3        1 UNL1     -0.3076
     7 O         -3.21303   -0.900239   2.506228 O.3        1 UNL1     -0.4605
     8 C         -3.723029   -1.115744   3.773897 C.ar        1 UNL1     0.1310
     9 C         -4.854165   -1.882926   4.072666 C.ar        1 UNL1     0.0226
     10 C         -5.28282   -2.056113   5.394091 C.ar        1 UNL1     0.1343
     11 C         -4.576189   -1.485325   6.451784 C.ar        1 UNL1     0.1007
     12 C         -3.468891   -0.683285   6.162984 C.ar        1 UNL1     0.1389
     13 C         -3.039628   -0.507129   4.834025 C.ar        1 UNL1     0.0229
     14 C         -4.935634   -1.704845   7.871912 C.2        1 UNL1     0.1740
     15 C         -3.941891   -1.203392   8.878177 C.3        1 UNL1     0.0520
     16 C         -3.411983   0.142359   8.402666 C.3        1 UNL1     0.1322
     17 O         -2.764879   0.013564   7.117466 O.3        1 UNL1     -0.4828
     18 C         -4.440089   1.273281   8.484746 C.ar        1 UNL1     -0.0067
     19 C         -4.634642   2.114603   7.370053 C.ar        1 UNL1     -0.0516
     20 C         -5.532461   3.187246   7.427699 C.ar        1 UNL1     -0.0198
     21 C         -6.234693   3.432975   8.594024 C.ar        1 UNL1     0.1169
     22 C         -6.08952   2.602071   9.697366 C.ar        1 UNL1     -0.0198
     23 C         -5.205494   1.518316   9.633879 C.ar        1 UNL1     -0.0516
     24 O         -7.071901   4.509313   8.625316 O.3        1 UNL1     -0.5068
     25 O         -5.934391   -2.324327   8.228581 O.2        1 UNL1     -0.2917
     26 O         -6.394222   -2.815267   5.617822 O.3        1 UNL1     -0.5058
     27 O         -0.226746   -0.19013   2.542119 O.3        1 UNL1     -0.3648
     28 O         0.267951   -1.953846   -0.567023 O.3        1 UNL1     -0.3841
     29 O         -2.460683   0.350932   -0.261403 O.3        1 UNL1     -0.3863
     30 O         -2.442271   -3.322758   -0.199993 O.3        1 UNL1     -0.3829
     31 H         0.628504   -1.841274   1.820829 H        1 UNL1     0.0937
     32 H         0.0   0.0   0.0 H        1 UNL1     0.0671
     33 H         -1.866323   -1.202261   -1.409474 H        1 UNL1     0.0649
     34 H         -3.839834   -1.84352   0.065733 H        1 UNL1     0.0683
     35 H         -3.192954   -2.943141   2.160161 H        1 UNL1     0.1085
     36 H         -5.41386   -2.398472   3.29996 H        1 UNL1     0.0691
     37 H         -2.175294   0.123001   4.635644 H        1 UNL1     0.0691
     38 H         -3.137114   -1.94317   8.945917 H        1 UNL1     0.0385
     39 H         -4.426717   -1.134704   9.857974 H        1 UNL1     0.0385
     40 H         -2.604802   0.43309   9.088563 H        1 UNL1     0.0789
     41 H         -4.088656   1.948252   6.445999 H        1 UNL1     0.0623
     42 H         -5.664856   3.835982   6.565363 H        1 UNL1     0.0654
     43 H         -6.645711   2.776432   10.610689 H        1 UNL1     0.0654
     44 H         -5.124836   0.88356   10.511047 H        1 UNL1     0.0623
     45 H         -6.546956   5.310847   8.468171 H        1 UNL1     0.2921
     46 H         -6.174774   -3.538765   6.225938 H        1 UNL1     0.2922
     47 H         0.51628   0.363557   2.264266 H        1 UNL1     0.2126
     48 H         1.200868   -1.888093   -0.285823 H        1 UNL1     0.2101
     49 H         -2.021759   0.933275   -0.901728 H        1 UNL1     0.2100
     50 H         -2.675505   -3.337777   -1.151355 H        1 UNL1     0.2102
@<TRIPOS>BOND
     1     1     2    1
     2     1     6    1
     3     2     3    1
     4     3     4    1
     5     3    29    1
     6     3    33    1
     7     4     5    1
     8     5     6    1
     9     5     7    1
    10     5    35    1
    11     7     8    1
    12     8     9   ar
    13     8    13   ar
    14     9    10   ar
    15     9    36    1
    16    10    11   ar
    17    10    26    1
    18    11    12   ar
    19    11    14    1
    20    12    13   ar
    21    12    17    1
    22    13    37    1
    23    14    15    1
    24    14    25    2
    25    15    16    1
    26    15    38    1
    27    15    39    1
    28    16    17    1
    29    16    18    1
    30    16    40    1
    31    18    19   ar
    32    18    23   ar
    33    19    20   ar
    34    19    41    1
    35    20    21   ar
    36    20    42    1
    37    21    22   ar
    38    21    24    1
    39    22    23   ar
    40    22    43    1
    41    23    44    1
    42    24    45    1
    43    26    46    1
    44    27    47    1
    45    28    48    1
    46    29    49    1
    47    30    50    1
    48     1    31    1
    49     1    27    1
    50     2    32    1
    51     2    28    1
    52     4    34    1
    53     4    30    1
