@<TRIPOS>MOLECULE
*****
 50 53 0 0 0
SMALL
GASTEIGER

@<TRIPOS>ATOM
     1 C         1.74305   -0.990636   0.86673 C.3        1 UNL1     0.1889
     2 C         0.212662   -0.746862   0.774942 C.3        1 UNL1     0.1342
     3 C         -0.446398   -0.305375   2.090691 C.3        1 UNL1     0.1174
     4 C         0.195209   -0.950616   3.321594 C.3        1 UNL1     0.1456
     5 C         1.733227   -0.891257   3.285003 C.3        1 UNL1     0.2326
     6 O         2.215695   -1.516772   2.098064 O.3        1 UNL1     -0.3076
     7 O         2.260568   0.433443   3.480966 O.3        1 UNL1     -0.4605
     8 C         2.88089   1.007139   2.385704 C.ar        1 UNL1     0.1310
     9 C         2.857274   2.367923   2.061651 C.ar        1 UNL1     0.0226
     10 C         3.533049   2.85588   0.936872 C.ar        1 UNL1     0.1343
     11 C         4.269275   1.997507   0.121392 C.ar        1 UNL1     0.1007
     12 C         4.266563   0.630538   0.411514 C.ar        1 UNL1     0.1389
     13 C         3.584819   0.139771   1.541029 C.ar        1 UNL1     0.0229
     14 C         5.070444   2.471355   -1.030889 C.2        1 UNL1     0.1740
     15 C         5.973269   1.449903   -1.657859 C.3        1 UNL1     0.0520
     16 C         5.232843   0.120676   -1.71156 C.3        1 UNL1     0.1322
     17 O         4.867861   -0.316986   -0.38404 O.3        1 UNL1     -0.4828
     18 C         4.086736   0.094315   -2.725695 C.ar        1 UNL1     -0.0067
     19 C         4.379025   -0.050588   -4.097476 C.ar        1 UNL1     -0.0516
     20 C         3.358243   -0.031115   -5.055384 C.ar        1 UNL1     -0.0198
     21 C         2.044832   0.13957   -4.655825 C.ar        1 UNL1     0.1169
     22 C         1.722181   0.251315   -3.309628 C.ar        1 UNL1     -0.0198
     23 C         2.740952   0.213373   -2.350085 C.ar        1 UNL1     -0.0516
     24 O         1.081464   0.191388   -5.620002 O.3        1 UNL1     -0.5068
     25 O         5.075294   3.6372   -1.417238 O.2        1 UNL1     -0.2917
     26 O         3.469481   4.193539   0.675698 O.3        1 UNL1     -0.5058
     27 O         2.518713   0.117385   0.438451 O.3        1 UNL1     -0.3648
     28 O         -0.421162   -1.974146   0.36905 O.3        1 UNL1     -0.3841
     29 O         -0.500071   1.120001   2.177607 O.3        1 UNL1     -0.3863
     30 O         -0.214143   -2.333401   3.399234 O.3        1 UNL1     -0.3829
     31 H         1.978024   -1.779715   0.144082 H        1 UNL1     0.0937
     32 H         0.0   0.0   0.0 H        1 UNL1     0.0671
     33 H         -1.494214   -0.635983   2.068346 H        1 UNL1     0.0649
     34 H         -0.164157   -0.458337   4.232044 H        1 UNL1     0.0683
     35 H         2.042441   -1.523288   4.126907 H        1 UNL1     0.1085
     36 H         2.349442   3.094209   2.68674 H        1 UNL1     0.0691
     37 H         3.597238   -0.928868   1.744374 H        1 UNL1     0.0691
     38 H         6.872151   1.376466   -1.036453 H        1 UNL1     0.0385
     39 H         6.272522   1.797639   -2.652498 H        1 UNL1     0.0385
     40 H         5.948851   -0.634752   -2.062532 H        1 UNL1     0.0789
     41 H         5.402826   -0.176761   -4.437421 H        1 UNL1     0.0623
     42 H         3.597579   -0.131914   -6.111115 H        1 UNL1     0.0654
     43 H         0.695474   0.370288   -2.984622 H        1 UNL1     0.0654
     44 H         2.451684   0.292989   -1.306615 H        1 UNL1     0.0623
     45 H         0.357354   0.753591   -5.300143 H        1 UNL1     0.2921
     46 H         4.36425   4.536175   0.52272 H        1 UNL1     0.2922
     47 H         3.258225   -0.182894   -0.108187 H        1 UNL1     0.2126
     48 H         -0.793271   -2.37727   1.176985 H        1 UNL1     0.2101
     49 H         0.3628   1.497608   1.94381 H        1 UNL1     0.2100
     50 H         0.019129   -2.667329   4.290182 H        1 UNL1     0.2102
@<TRIPOS>BOND
     1     1     2    1
     2     1     6    1
     3     2     3    1
     4     3     4    1
     5     3    29    1
     6     3    33    1
     7     4     5    1
     8     5     6    1
     9     5     7    1
    10     5    35    1
    11     7     8    1
    12     8     9   ar
    13     8    13   ar
    14     9    10   ar
    15     9    36    1
    16    10    11   ar
    17    10    26    1
    18    11    12   ar
    19    11    14    1
    20    12    13   ar
    21    12    17    1
    22    13    37    1
    23    14    15    1
    24    14    25    2
    25    15    16    1
    26    15    38    1
    27    15    39    1
    28    16    17    1
    29    16    18    1
    30    16    40    1
    31    18    19   ar
    32    18    23   ar
    33    19    20   ar
    34    19    41    1
    35    20    21   ar
    36    20    42    1
    37    21    22   ar
    38    21    24    1
    39    22    23   ar
    40    22    43    1
    41    23    44    1
    42    24    45    1
    43    26    46    1
    44    27    47    1
    45    28    48    1
    46    29    49    1
    47    30    50    1
    48     1    31    1
    49     1    27    1
    50     2    32    1
    51     2    28    1
    52     4    34    1
    53     4    30    1
