@<TRIPOS>MOLECULE
*****
 50 53 0 0 0
SMALL
GASTEIGER

@<TRIPOS>ATOM
     1 C         -0.330425   -1.327246   1.702951 C.3        1 UNL1     0.1889
     2 C         -0.461705   -0.975567   0.196621 C.3        1 UNL1     0.1342
     3 C         -1.902747   -0.964436   -0.336049 C.3        1 UNL1     0.1174
     4 C         -2.788067   -2.023805   0.325061 C.3        1 UNL1     0.1456
     5 C         -2.63586   -2.047858   1.856928 C.3        1 UNL1     0.2326
     6 O         -1.270682   -2.264718   2.206398 O.3        1 UNL1     -0.3076
     7 O         -3.211337   -0.900707   2.508229 O.3        1 UNL1     -0.4605
     8 C         -3.720238   -1.115496   3.776461 C.ar        1 UNL1     0.1310
     9 C         -4.53553   -2.188818   4.151399 C.ar        1 UNL1     0.0226
     10 C         -4.987712   -2.328452   5.468949 C.ar        1 UNL1     0.1343
     11 C         -4.615638   -1.410168   6.449844 C.ar        1 UNL1     0.1007
     12 C         -3.835559   -0.311771   6.078649 C.ar        1 UNL1     0.1389
     13 C         -3.3832   -0.170162   4.753225 C.ar        1 UNL1     0.0229
     14 C         -4.995459   -1.5551   7.874234 C.2        1 UNL1     0.1740
     15 C         -4.326805   -0.605511   8.824356 C.3        1 UNL1     0.0520
     16 C         -4.258959   0.765968   8.166785 C.3        1 UNL1     0.1322
     17 O         -3.50096   0.708693   6.938279 O.3        1 UNL1     -0.4828
     18 C         -5.618833   1.457174   8.041483 C.ar        1 UNL1     -0.0067
     19 C         -5.999015   2.018638   6.805185 C.ar        1 UNL1     -0.0516
     20 C         -7.214909   2.69906   6.668841 C.ar        1 UNL1     -0.0198
     21 C         -8.054155   2.830921   7.760678 C.ar        1 UNL1     0.1169
     22 C         -7.722757   2.260019   8.982596 C.ar        1 UNL1     -0.0198
     23 C         -6.515396   1.563634   9.11444 C.ar        1 UNL1     -0.0516
     24 O         -9.212507   3.532843   7.599664 O.3        1 UNL1     -0.5068
     25 O         -5.743319   -2.43705   8.288183 O.2        1 UNL1     -0.2917
     26 O         -5.781003   -3.397155   5.769194 O.3        1 UNL1     -0.5058
     27 O         -0.225579   -0.188305   2.542359 O.3        1 UNL1     -0.3648
     28 O         0.269205   -1.954087   -0.565596 O.3        1 UNL1     -0.3841
     29 O         -2.461054   0.34886   -0.260686 O.3        1 UNL1     -0.3863
     30 O         -2.439829   -3.324766   -0.196399 O.3        1 UNL1     -0.3829
     31 H         0.630634   -1.839365   1.822021 H        1 UNL1     0.0937
     32 H         0.0   0.0   0.0 H        1 UNL1     0.0671
     33 H         -1.865977   -1.204783   -1.407777 H        1 UNL1     0.0649
     34 H         -3.838407   -1.84638   0.068728 H        1 UNL1     0.0683
     35 H         -3.18985   -2.943865   2.163759 H        1 UNL1     0.1085
     36 H         -4.813716   -2.966335   3.448405 H        1 UNL1     0.0691
     37 H         -2.777994   0.694539   4.489576 H        1 UNL1     0.0691
     38 H         -3.324037   -0.994664   9.030616 H        1 UNL1     0.0385
     39 H         -4.886492   -0.586116   9.765713 H        1 UNL1     0.0385
     40 H         -3.66421   1.412186   8.826478 H        1 UNL1     0.0789
     41 H         -5.35363   1.936688   5.935464 H        1 UNL1     0.0623
     42 H         -7.491369   3.137901   5.713331 H        1 UNL1     0.0654
     43 H         -8.379553   2.344327   9.840164 H        1 UNL1     0.0654
     44 H         -6.29336   1.121279   10.080808 H        1 UNL1     0.0623
     45 H         -8.987373   4.44016   7.337354 H        1 UNL1     0.2921
     46 H         -5.375823   -3.909352   6.486756 H        1 UNL1     0.2922
     47 H         0.517021   0.365639   2.263878 H        1 UNL1     0.2126
     48 H         1.202066   -1.887894   -0.284312 H        1 UNL1     0.2101
     49 H         -2.022829   0.931033   -0.901646 H        1 UNL1     0.2100
     50 H         -2.673434   -3.340709   -1.147655 H        1 UNL1     0.2102
@<TRIPOS>BOND
     1     1     2    1
     2     1     6    1
     3     2     3    1
     4     3     4    1
     5     3    29    1
     6     3    33    1
     7     4     5    1
     8     5     6    1
     9     5     7    1
    10     5    35    1
    11     7     8    1
    12     8     9   ar
    13     8    13   ar
    14     9    10   ar
    15     9    36    1
    16    10    11   ar
    17    10    26    1
    18    11    12   ar
    19    11    14    1
    20    12    13   ar
    21    12    17    1
    22    13    37    1
    23    14    15    1
    24    14    25    2
    25    15    16    1
    26    15    38    1
    27    15    39    1
    28    16    17    1
    29    16    18    1
    30    16    40    1
    31    18    19   ar
    32    18    23   ar
    33    19    20   ar
    34    19    41    1
    35    20    21   ar
    36    20    42    1
    37    21    22   ar
    38    21    24    1
    39    22    23   ar
    40    22    43    1
    41    23    44    1
    42    24    45    1
    43    26    46    1
    44    27    47    1
    45    28    48    1
    46    29    49    1
    47    30    50    1
    48     1    31    1
    49     1    27    1
    50     2    32    1
    51     2    28    1
    52     4    34    1
    53     4    30    1
