@<TRIPOS>MOLECULE
*****
 50 53 0 0 0
SMALL
GASTEIGER

@<TRIPOS>ATOM
     1 C         -1.450048   -1.336654   0.938894 C.3        1 UNL1     0.1889
     2 C         -0.876742   -0.589645   -0.295302 C.3        1 UNL1     0.1342
     3 C         -1.87919   0.327657   -1.012323 C.3        1 UNL1     0.1174
     4 C         -3.306617   -0.224862   -0.995232 C.3        1 UNL1     0.1456
     5 C         -3.728798   -0.726235   0.397877 C.3        1 UNL1     0.2326
     6 O         -2.81454   -1.720574   0.854263 O.3        1 UNL1     -0.3076
     7 O         -3.934614   0.333017   1.350215 O.3        1 UNL1     -0.4605
     8 C         -4.90352   0.104812   2.310773 C.ar        1 UNL1     0.1310
     9 C         -6.180138   -0.413001   2.067019 C.ar        1 UNL1     0.0226
     10 C         -7.087094   -0.624444   3.112306 C.ar        1 UNL1     0.1343
     11 C         -6.730538   -0.345222   4.43092 C.ar        1 UNL1     0.1007
     12 C         -5.473306   0.210681   4.682161 C.ar        1 UNL1     0.1389
     13 C         -4.562511   0.425664   3.630654 C.ar        1 UNL1     0.0229
     14 C         -7.618542   -0.627764   5.582342 C.2        1 UNL1     0.1740
     15 C         -6.992791   -0.475337   6.93761 C.3        1 UNL1     0.0520
     16 C         -6.100143   0.757883   6.920183 C.3        1 UNL1     0.1322
     17 O         -5.059343   0.623548   5.927328 O.3        1 UNL1     -0.4828
     18 C         -6.873235   2.077242   6.85428 C.ar        1 UNL1     -0.0067
     19 C         -6.485572   3.061233   5.921706 C.ar        1 UNL1     -0.0516
     20 C         -7.140844   4.297204   5.867346 C.ar        1 UNL1     -0.0198
     21 C         -8.178104   4.563561   6.743116 C.ar        1 UNL1     0.1169
     22 C         -8.604641   3.602221   7.650161 C.ar        1 UNL1     -0.0198
     23 C         -7.961618   2.359319   7.692284 C.ar        1 UNL1     -0.0516
     24 O         -8.767636   5.792223   6.686181 O.3        1 UNL1     -0.5068
     25 O         -8.769787   -1.038828   5.463401 O.2        1 UNL1     -0.2917
     26 O         -8.316734   -1.130953   2.807316 O.3        1 UNL1     -0.5058
     27 O         -1.161641   -0.696262   2.171576 O.3        1 UNL1     -0.3648
     28 O         -0.42969   -1.567202   -1.253025 O.3        1 UNL1     -0.3841
     29 O         -1.79617   1.662057   -0.507726 O.3        1 UNL1     -0.3863
     30 O         -3.401738   -1.320523   -1.93127 O.3        1 UNL1     -0.3829
     31 H         -0.918466   -2.292517   1.000755 H        1 UNL1     0.0937
     32 H         0.0   0.0   0.0 H        1 UNL1     0.0671
     33 H         -1.577142   0.395155   -2.066805 H        1 UNL1     0.0649
     34 H         -4.009825   0.545386   -1.330815 H        1 UNL1     0.0683
     35 H         -4.686057   -1.231485   0.218278 H        1 UNL1     0.1085
     36 H         -6.497461   -0.702526   1.071227 H        1 UNL1     0.0691
     37 H         -3.590365   0.860647   3.8525 H        1 UNL1     0.0691
     38 H         -6.410815   -1.381363   7.137477 H        1 UNL1     0.0385
     39 H         -7.783619   -0.403414   7.692061 H        1 UNL1     0.0385
     40 H         -5.563862   0.782875   7.878462 H        1 UNL1     0.0789
     41 H         -5.668368   2.879975   5.229627 H        1 UNL1     0.0623
     42 H         -6.824823   5.052238   5.151759 H        1 UNL1     0.0654
     43 H         -9.425711   3.794771   8.330366 H        1 UNL1     0.0654
     44 H         -8.32793   1.62796   8.406267 H        1 UNL1     0.0623
     45 H         -8.100547   6.462909   6.905019 H        1 UNL1     0.2921
     46 H         -8.465761   -1.945309   3.313308 H        1 UNL1     0.2922
     47 H         -0.208721   -0.555389   2.260786 H        1 UNL1     0.2126
     48 H         0.295294   -2.064347   -0.827612 H        1 UNL1     0.2101
     49 H         -0.957992   2.067047   -0.782017 H        1 UNL1     0.2100
     50 H         -3.273933   -0.958912   -2.832722 H        1 UNL1     0.2102
@<TRIPOS>BOND
     1     1     2    1
     2     1     6    1
     3     2     3    1
     4     3     4    1
     5     3    29    1
     6     3    33    1
     7     4     5    1
     8     5     6    1
     9     5     7    1
    10     5    35    1
    11     7     8    1
    12     8     9   ar
    13     8    13   ar
    14     9    10   ar
    15     9    36    1
    16    10    11   ar
    17    10    26    1
    18    11    12   ar
    19    11    14    1
    20    12    13   ar
    21    12    17    1
    22    13    37    1
    23    14    15    1
    24    14    25    2
    25    15    16    1
    26    15    38    1
    27    15    39    1
    28    16    17    1
    29    16    18    1
    30    16    40    1
    31    18    19   ar
    32    18    23   ar
    33    19    20   ar
    34    19    41    1
    35    20    21   ar
    36    20    42    1
    37    21    22   ar
    38    21    24    1
    39    22    23   ar
    40    22    43    1
    41    23    44    1
    42    24    45    1
    43    26    46    1
    44    27    47    1
    45    28    48    1
    46    29    49    1
    47    30    50    1
    48     1    31    1
    49     1    27    1
    50     2    32    1
    51     2    28    1
    52     4    34    1
    53     4    30    1
