@<TRIPOS>MOLECULE
*****
 50 53 0 0 0
SMALL
GASTEIGER

@<TRIPOS>ATOM
     1 C         -0.350033   -1.338343   1.690302 C.3        1 UNL1     0.1889
     2 C         -0.471431   -0.972914   0.186419 C.3        1 UNL1     0.1342
     3 C         -1.909939   -0.944168   -0.352407 C.3        1 UNL1     0.1174
     4 C         -2.807784   -2.000884   0.295931 C.3        1 UNL1     0.1456
     5 C         -2.66259   -2.039116   1.828191 C.3        1 UNL1     0.2326
     6 O         -1.301004   -2.271354   2.181769 O.3        1 UNL1     -0.3076
     7 O         -3.230481   -0.892231   2.486581 O.3        1 UNL1     -0.4605
     8 C         -3.754148   -1.114639   3.747468 C.ar        1 UNL1     0.1310
     9 C         -4.585878   -2.182008   4.10278 C.ar        1 UNL1     0.0226
     10 C         -5.052406   -2.330496   5.414347 C.ar        1 UNL1     0.1343
     11 C         -4.678794   -1.427542   6.408797 C.ar        1 UNL1     0.1007
     12 C         -3.882006   -0.334715   6.057168 C.ar        1 UNL1     0.1389
     13 C         -3.415203   -0.184168   4.737751 C.ar        1 UNL1     0.0229
     14 C         -5.074063   -1.583371   7.827822 C.2        1 UNL1     0.1740
     15 C         -4.403234   -0.652382   8.79467 C.3        1 UNL1     0.0520
     16 C         -4.312544   0.725259   8.152923 C.3        1 UNL1     0.1322
     17 O         -3.543465   0.672181   6.931133 O.3        1 UNL1     -0.4828
     18 C         -5.662729   1.434246   8.022303 C.ar        1 UNL1     -0.0067
     19 C         -6.016596   2.029106   6.793835 C.ar        1 UNL1     -0.0516
     20 C         -7.222762   2.725983   6.65424 C.ar        1 UNL1     -0.0198
     21 C         -8.078325   2.84113   7.73525 C.ar        1 UNL1     0.1169
     22 C         -7.773098   2.237716   8.948331 C.ar        1 UNL1     -0.0198
     23 C         -6.575559   1.525084   9.082909 C.ar        1 UNL1     -0.0516
     24 O         -9.226327   3.559449   7.572437 O.3        1 UNL1     -0.5068
     25 O         -5.836443   -2.460638   8.224892 O.2        1 UNL1     -0.2917
     26 O         -5.86136   -3.392701   5.695234 O.3        1 UNL1     -0.5058
     27 O         -0.238543   -0.207455   2.539684 O.3        1 UNL1     -0.3648
     28 O         0.25391   -1.951675   -0.580792 O.3        1 UNL1     -0.3841
     29 O         -2.456597   0.373501   -0.268462 O.3        1 UNL1     -0.3863
     30 O         -2.469097   -3.300574   -0.234903 O.3        1 UNL1     -0.3829
     31 H         0.605789   -1.8602   1.809255 H        1 UNL1     0.0937
     32 H         0.0   0.0   0.0 H        1 UNL1     0.0671
     33 H         -1.870611   -1.175884   -1.425944 H        1 UNL1     0.0649
     34 H         -3.855321   -1.811734   0.036526 H        1 UNL1     0.0683
     35 H         -3.226067   -2.932553   2.125079 H        1 UNL1     0.1085
     36 H         -4.866602   -2.948382   3.388647 H        1 UNL1     0.0691
     37 H         -2.797119   0.675945   4.489417 H        1 UNL1     0.0691
     38 H         -3.407259   -1.055903   9.006169 H        1 UNL1     0.0385
     39 H         -4.971707   -0.636456   9.730813 H        1 UNL1     0.0385
     40 H         -3.716457   1.356981   8.825328 H        1 UNL1     0.0789
     41 H         -5.357964   1.960717   5.932918 H        1 UNL1     0.0623
     42 H         -7.478835   3.19044   5.705178 H        1 UNL1     0.0654
     43 H         -8.442915   2.308877   9.796973 H        1 UNL1     0.0654
     44 H         -6.374115   1.057456   10.041861 H        1 UNL1     0.0623
     45 H         -8.987121   4.472434   7.344499 H        1 UNL1     0.2921
     46 H         -5.470527   -3.916212   6.412588 H        1 UNL1     0.2922
     47 H         0.504299   0.3471   2.263071 H        1 UNL1     0.2126
     48 H         1.189552   -1.88217   -0.309725 H        1 UNL1     0.2101
     49 H         -2.016098   0.95493   -0.908536 H        1 UNL1     0.2100
     50 H         -2.703861   -3.308332   -1.185975 H        1 UNL1     0.2102
@<TRIPOS>BOND
     1     1     2    1
     2     1     6    1
     3     2     3    1
     4     3     4    1
     5     3    29    1
     6     3    33    1
     7     4     5    1
     8     5     6    1
     9     5     7    1
    10     5    35    1
    11     7     8    1
    12     8     9   ar
    13     8    13   ar
    14     9    10   ar
    15     9    36    1
    16    10    11   ar
    17    10    26    1
    18    11    12   ar
    19    11    14    1
    20    12    13   ar
    21    12    17    1
    22    13    37    1
    23    14    15    1
    24    14    25    2
    25    15    16    1
    26    15    38    1
    27    15    39    1
    28    16    17    1
    29    16    18    1
    30    16    40    1
    31    18    19   ar
    32    18    23   ar
    33    19    20   ar
    34    19    41    1
    35    20    21   ar
    36    20    42    1
    37    21    22   ar
    38    21    24    1
    39    22    23   ar
    40    22    43    1
    41    23    44    1
    42    24    45    1
    43    26    46    1
    44    27    47    1
    45    28    48    1
    46    29    49    1
    47    30    50    1
    48     1    31    1
    49     1    27    1
    50     2    32    1
    51     2    28    1
    52     4    34    1
    53     4    30    1
