@<TRIPOS>MOLECULE
*****
 50 53 0 0 0
SMALL
GASTEIGER

@<TRIPOS>ATOM
     1 C         -0.351277   -1.33959   1.689055 C.3        1 UNL1     0.1889
     2 C         -0.471067   -0.973314   0.185249 C.3        1 UNL1     0.1342
     3 C         -1.908936   -0.945109   -0.35531 C.3        1 UNL1     0.1174
     4 C         -2.806928   -2.002766   0.291289 C.3        1 UNL1     0.1456
     5 C         -2.663574   -2.041849   1.823701 C.3        1 UNL1     0.2326
     6 O         -1.302279   -2.273478   2.178793 O.3        1 UNL1     -0.3076
     7 O         -3.232962   -0.895712   2.4821 O.3        1 UNL1     -0.4605
     8 C         -3.761419   -1.119999   3.740654 C.ar        1 UNL1     0.1310
     9 C         -4.595291   -2.187348   4.090971 C.ar        1 UNL1     0.0226
     10 C         -5.066736   -2.337853   5.400548 C.ar        1 UNL1     0.1343
     11 C         -4.696051   -1.437013   6.398005 C.ar        1 UNL1     0.1007
     12 C         -3.897115   -0.344185   6.051291 C.ar        1 UNL1     0.1389
     13 C         -3.425364   -0.191607   4.733869 C.ar        1 UNL1     0.0229
     14 C         -5.096637   -1.595112   7.815288 C.2        1 UNL1     0.1740
     15 C         -4.428614   -0.666424   8.786283 C.3        1 UNL1     0.0520
     16 C         -4.334482   0.712311   8.147388 C.3        1 UNL1     0.1322
     17 O         -3.560977   0.660846   6.928327 O.3        1 UNL1     -0.4828
     18 C         -5.683616   1.422616   8.013122 C.ar        1 UNL1     -0.0067
     19 C         -6.032511   2.019997   6.784455 C.ar        1 UNL1     -0.0516
     20 C         -7.237605   2.718092   6.641719 C.ar        1 UNL1     -0.0198
     21 C         -8.097028   2.831953   7.719798 C.ar        1 UNL1     0.1169
     22 C         -7.796724   2.226085   8.932885 C.ar        1 UNL1     -0.0198
     23 C         -6.600251   1.512251   9.070543 C.ar        1 UNL1     -0.0516
     24 O         -9.243856   3.551487   7.554097 O.3        1 UNL1     -0.5068
     25 O         -5.861162   -2.472491   8.207962 O.2        1 UNL1     -0.2917
     26 O         -5.877556   -3.39992   5.676533 O.3        1 UNL1     -0.5058
     27 O         -0.241507   -0.209155   2.539264 O.3        1 UNL1     -0.3648
     28 O         0.255801   -1.951165   -0.581676 O.3        1 UNL1     -0.3841
     29 O         -2.456495   0.372176   -0.271223 O.3        1 UNL1     -0.3863
     30 O         -2.466805   -3.301926   -0.239928 O.3        1 UNL1     -0.3829
     31 H         0.604716   -1.86094   1.808852 H        1 UNL1     0.0937
     32 H         0.0   0.0   0.0 H        1 UNL1     0.0671
     33 H         -1.868161   -1.176144   -1.428939 H        1 UNL1     0.0649
     34 H         -3.854262   -1.814093   0.030725 H        1 UNL1     0.0683
     35 H         -3.22687   -2.935809   2.119356 H        1 UNL1     0.1085
     36 H         -4.874006   -2.952194   3.374417 H        1 UNL1     0.0691
     37 H         -2.805692   0.668463   4.489369 H        1 UNL1     0.0691
     38 H         -3.433741   -1.071127   9.000688 H        1 UNL1     0.0385
     39 H         -5.000498   -0.65175   9.720366 H        1 UNL1     0.0385
     40 H         -3.74036   1.342329   8.823122 H        1 UNL1     0.0789
     41 H         -5.370785   1.952651   5.925831 H        1 UNL1     0.0623
     42 H         -7.489832   3.184484   5.692576 H        1 UNL1     0.0654
     43 H         -8.469587   2.296235   9.779198 H        1 UNL1     0.0654
     44 H         -6.402692   1.042715   10.029371 H        1 UNL1     0.0623
     45 H         -9.003047   4.469836   7.350719 H        1 UNL1     0.2921
     46 H         -5.489767   -3.925051   6.394355 H        1 UNL1     0.2922
     47 H         0.494505   0.351721   2.257195 H        1 UNL1     0.2126
     48 H         1.194454   -1.865738   -0.326011 H        1 UNL1     0.2101
     49 H         -2.015571   0.954265   -0.910404 H        1 UNL1     0.2100
     50 H         -2.700407   -3.309243   -1.19129 H        1 UNL1     0.2102
@<TRIPOS>BOND
     1     1     2    1
     2     1     6    1
     3     2     3    1
     4     3     4    1
     5     3    29    1
     6     3    33    1
     7     4     5    1
     8     5     6    1
     9     5     7    1
    10     5    35    1
    11     7     8    1
    12     8     9   ar
    13     8    13   ar
    14     9    10   ar
    15     9    36    1
    16    10    11   ar
    17    10    26    1
    18    11    12   ar
    19    11    14    1
    20    12    13   ar
    21    12    17    1
    22    13    37    1
    23    14    15    1
    24    14    25    2
    25    15    16    1
    26    15    38    1
    27    15    39    1
    28    16    17    1
    29    16    18    1
    30    16    40    1
    31    18    19   ar
    32    18    23   ar
    33    19    20   ar
    34    19    41    1
    35    20    21   ar
    36    20    42    1
    37    21    22   ar
    38    21    24    1
    39    22    23   ar
    40    22    43    1
    41    23    44    1
    42    24    45    1
    43    26    46    1
    44    27    47    1
    45    28    48    1
    46    29    49    1
    47    30    50    1
    48     1    31    1
    49     1    27    1
    50     2    32    1
    51     2    28    1
    52     4    34    1
    53     4    30    1
