@<TRIPOS>MOLECULE
*****
 50 53 0 0 0
SMALL
GASTEIGER

@<TRIPOS>ATOM
     1 C         -0.331087   -1.327641   1.702514 C.3        1 UNL1     0.1889
     2 C         -0.461929   -0.975536   0.196246 C.3        1 UNL1     0.1342
     3 C         -1.902837   -0.964005   -0.336779 C.3        1 UNL1     0.1174
     4 C         -2.788511   -2.023391   0.323827 C.3        1 UNL1     0.1456
     5 C         -2.636689   -2.04788   1.855726 C.3        1 UNL1     0.2326
     6 O         -1.271637   -2.265079   2.205477 O.3        1 UNL1     -0.3076
     7 O         -3.212122   -0.900799   2.507189 O.3        1 UNL1     -0.4605
     8 C         -3.721802   -1.115942   3.775049 C.ar        1 UNL1     0.1310
     9 C         -4.537681   -2.189133   4.149085 C.ar        1 UNL1     0.0226
     10 C         -4.990643   -2.32916   5.466324 C.ar        1 UNL1     0.1343
     11 C         -4.618788   -1.41142   6.447812 C.ar        1 UNL1     0.1007
     12 C         -3.838116   -0.313143   6.077511 C.ar        1 UNL1     0.1389
     13 C         -3.384972   -0.171137   4.752397 C.ar        1 UNL1     0.0229
     14 C         -4.99945   -1.556817   7.871929 C.2        1 UNL1     0.1740
     15 C         -4.330988   -0.607863   8.822821 C.3        1 UNL1     0.0520
     16 C         -4.262293   0.763868   8.165864 C.3        1 UNL1     0.1322
     17 O         -3.503633   0.706841   6.937755 O.3        1 UNL1     -0.4828
     18 C         -5.621853   1.455608   8.040099 C.ar        1 UNL1     -0.0067
     19 C         -6.000366   2.019361   6.80433 C.ar        1 UNL1     -0.0516
     20 C         -7.215935   2.700303   6.667684 C.ar        1 UNL1     -0.0198
     21 C         -8.056512   2.830409   7.758707 C.ar        1 UNL1     0.1169
     22 C         -7.726769   2.257253   8.980018 C.ar        1 UNL1     -0.0198
     23 C         -6.51973   1.560359   9.112125 C.ar        1 UNL1     -0.0516
     24 O         -9.214504   3.532881   7.597501 O.3        1 UNL1     -0.5068
     25 O         -5.747851   -2.438676   8.285093 O.2        1 UNL1     -0.2917
     26 O         -5.784477   -3.39771   5.76568 O.3        1 UNL1     -0.5058
     27 O         -0.226245   -0.188942   2.542252 O.3        1 UNL1     -0.3648
     28 O         0.268995   -1.953984   -0.56605 O.3        1 UNL1     -0.3841
     29 O         -2.460926   0.349371   -0.261205 O.3        1 UNL1     -0.3863
     30 O         -2.440377   -3.324275   -0.197893 O.3        1 UNL1     -0.3829
     31 H         0.629851   -1.839964   1.821687 H        1 UNL1     0.0937
     32 H         0.0   0.0   0.0 H        1 UNL1     0.0671
     33 H         -1.865843   -1.204072   -1.408562 H        1 UNL1     0.0649
     34 H         -3.838755   -1.845709   0.067281 H        1 UNL1     0.0683
     35 H         -3.190917   -2.943869   2.16218 H        1 UNL1     0.1085
     36 H         -4.815751   -2.966256   3.445609 H        1 UNL1     0.0691
     37 H         -2.779315   0.693461   4.489447 H        1 UNL1     0.0691
     38 H         -3.328472   -0.997457   9.029474 H        1 UNL1     0.0385
     39 H         -4.89119   -0.588666   9.763876 H        1 UNL1     0.0385
     40 H         -3.667682   1.409599   8.826158 H        1 UNL1     0.0789
     41 H         -5.353915   1.938814   5.935271 H        1 UNL1     0.0623
     42 H         -7.491103   3.140909   5.712614 H        1 UNL1     0.0654
     43 H         -8.384614   2.340183   9.836915 H        1 UNL1     0.0654
     44 H         -6.299   1.116231   10.077979 H        1 UNL1     0.0623
     45 H         -8.988817   4.440803   7.33777 H        1 UNL1     0.2921
     46 H         -5.380393   -3.909768   6.483959 H        1 UNL1     0.2922
     47 H         0.516418   0.36503   2.263997 H        1 UNL1     0.2126
     48 H         1.201918   -1.887545   -0.285029 H        1 UNL1     0.2101
     49 H         -2.022438   0.931636   -0.9019 H        1 UNL1     0.2100
     50 H         -2.673748   -3.339923   -1.149211 H        1 UNL1     0.2102
@<TRIPOS>BOND
     1     1     2    1
     2     1     6    1
     3     2     3    1
     4     3     4    1
     5     3    29    1
     6     3    33    1
     7     4     5    1
     8     5     6    1
     9     5     7    1
    10     5    35    1
    11     7     8    1
    12     8     9   ar
    13     8    13   ar
    14     9    10   ar
    15     9    36    1
    16    10    11   ar
    17    10    26    1
    18    11    12   ar
    19    11    14    1
    20    12    13   ar
    21    12    17    1
    22    13    37    1
    23    14    15    1
    24    14    25    2
    25    15    16    1
    26    15    38    1
    27    15    39    1
    28    16    17    1
    29    16    18    1
    30    16    40    1
    31    18    19   ar
    32    18    23   ar
    33    19    20   ar
    34    19    41    1
    35    20    21   ar
    36    20    42    1
    37    21    22   ar
    38    21    24    1
    39    22    23   ar
    40    22    43    1
    41    23    44    1
    42    24    45    1
    43    26    46    1
    44    27    47    1
    45    28    48    1
    46    29    49    1
    47    30    50    1
    48     1    31    1
    49     1    27    1
    50     2    32    1
    51     2    28    1
    52     4    34    1
    53     4    30    1
