@<TRIPOS>MOLECULE
*****
 50 53 0 0 0
SMALL
GASTEIGER

@<TRIPOS>ATOM
     1 C         -0.380558   -1.389578   1.641662 C.3        1 UNL1     0.1889
     2 C         -0.490032   -0.969845   0.151098 C.3        1 UNL1     0.1342
     3 C         -1.925914   -0.895534   -0.390366 C.3        1 UNL1     0.1174
     4 C         -2.845412   -1.95723   0.218273 C.3        1 UNL1     0.1456
     5 C         -2.706174   -2.051452   1.748664 C.3        1 UNL1     0.2326
     6 O         -1.350343   -2.321216   2.09769 O.3        1 UNL1     -0.3076
     7 O         -3.254931   -0.917773   2.445053 O.3        1 UNL1     -0.4605
     8 C         -3.790329   -1.174775   3.694383 C.ar        1 UNL1     0.1310
     9 C         -4.63694   -2.243211   4.009021 C.ar        1 UNL1     0.0226
     10 C         -5.114717   -2.428656   5.311803 C.ar        1 UNL1     0.1343
     11 C         -4.737939   -1.562925   6.337663 C.ar        1 UNL1     0.1007
     12 C         -3.926001   -0.468754   6.027294 C.ar        1 UNL1     0.1389
     13 C         -3.447866   -0.280998   4.716734 C.ar        1 UNL1     0.0229
     14 C         -5.145335   -1.760037   7.748099 C.2        1 UNL1     0.1740
     15 C         -4.470841   -0.868902   8.749341 C.3        1 UNL1     0.0520
     16 C         -4.359517   0.527669   8.153394 C.3        1 UNL1     0.1322
     17 O         -3.582207   0.505183   6.935875 O.3        1 UNL1     -0.4828
     18 C         -5.700409   1.256425   8.036569 C.ar        1 UNL1     -0.0067
     19 C         -5.718974   2.618292   7.67162 C.ar        1 UNL1     -0.0516
     20 C         -6.924382   3.326863   7.601754 C.ar        1 UNL1     -0.0198
     21 C         -8.114571   2.688293   7.900931 C.ar        1 UNL1     0.1169
     22 C         -8.131889   1.339354   8.230934 C.ar        1 UNL1     -0.0198
     23 C         -6.928449   0.625852   8.282922 C.ar        1 UNL1     -0.0516
     24 O         -9.264711   3.42029   7.858965 O.3        1 UNL1     -0.5068
     25 O         -5.920705   -2.640657   8.111134 O.2        1 UNL1     -0.2917
     26 O         -5.937951   -3.489784   5.552382 O.3        1 UNL1     -0.5058
     27 O         -0.251003   -0.291204   2.530243 O.3        1 UNL1     -0.3648
     28 O         0.219638   -1.934684   -0.647751 O.3        1 UNL1     -0.3841
     29 O         -2.448317   0.428387   -0.26206 O.3        1 UNL1     -0.3863
     30 O         -2.529087   -3.243758   -0.356596 O.3        1 UNL1     -0.3829
     31 H         0.565007   -1.933001   1.744993 H        1 UNL1     0.0937
     32 H         0.0   0.0   0.0 H        1 UNL1     0.0671
     33 H         -1.887234   -1.090453   -1.471213 H        1 UNL1     0.0649
     34 H         -3.888369   -1.739657   -0.037273 H        1 UNL1     0.0683
     35 H         -3.287136   -2.944009   2.01268 H        1 UNL1     0.1085
     36 H         -4.921301   -2.982637   3.268408 H        1 UNL1     0.0691
     37 H         -2.818063   0.579357   4.500796 H        1 UNL1     0.0691
     38 H         -3.481178   -1.290813   8.954486 H        1 UNL1     0.0385
     39 H         -5.04591   -0.876647   9.68155 H        1 UNL1     0.0385
     40 H         -3.761076   1.130153   8.850102 H        1 UNL1     0.0789
     41 H         -4.797335   3.144609   7.440918 H        1 UNL1     0.0623
     42 H         -6.924422   4.379734   7.330696 H        1 UNL1     0.0654
     43 H         -9.05978   0.825677   8.45244 H        1 UNL1     0.0654
     44 H         -6.980222   -0.429216   8.533912 H        1 UNL1     0.0623
     45 H         -9.223698   4.096101   8.554892 H        1 UNL1     0.2921
     46 H         -5.569653   -4.028743   6.27022 H        1 UNL1     0.2922
     47 H         0.496233   0.264741   2.268665 H        1 UNL1     0.2126
     48 H         1.171304   -1.783486   -0.488997 H        1 UNL1     0.2101
     49 H         -2.128388   0.981619   -0.992385 H        1 UNL1     0.2100
     50 H         -2.781712   -3.221506   -1.302851 H        1 UNL1     0.2102
@<TRIPOS>BOND
     1     1     2    1
     2     1     6    1
     3     2     3    1
     4     3     4    1
     5     3    29    1
     6     3    33    1
     7     4     5    1
     8     5     6    1
     9     5     7    1
    10     5    35    1
    11     7     8    1
    12     8     9   ar
    13     8    13   ar
    14     9    10   ar
    15     9    36    1
    16    10    11   ar
    17    10    26    1
    18    11    12   ar
    19    11    14    1
    20    12    13   ar
    21    12    17    1
    22    13    37    1
    23    14    15    1
    24    14    25    2
    25    15    16    1
    26    15    38    1
    27    15    39    1
    28    16    17    1
    29    16    18    1
    30    16    40    1
    31    18    19   ar
    32    18    23   ar
    33    19    20   ar
    34    19    41    1
    35    20    21   ar
    36    20    42    1
    37    21    22   ar
    38    21    24    1
    39    22    23   ar
    40    22    43    1
    41    23    44    1
    42    24    45    1
    43    26    46    1
    44    27    47    1
    45    28    48    1
    46    29    49    1
    47    30    50    1
    48     1    31    1
    49     1    27    1
    50     2    32    1
    51     2    28    1
    52     4    34    1
    53     4    30    1
