@<TRIPOS>MOLECULE
*****
 50 53 0 0 0
SMALL
GASTEIGER

@<TRIPOS>ATOM
     1 C         -0.34907   -1.340648   1.688673 C.3        1 UNL1     0.1889
     2 C         -0.46685   -0.975498   0.184435 C.3        1 UNL1     0.1342
     3 C         -1.903478   -0.954398   -0.359733 C.3        1 UNL1     0.1174
     4 C         -2.797997   -2.016122   0.285012 C.3        1 UNL1     0.1456
     5 C         -2.658297   -2.053958   1.817793 C.3        1 UNL1     0.2326
     6 O         -1.296799   -2.278916   2.17638 O.3        1 UNL1     -0.3076
     7 O         -3.234832   -0.910331   2.474334 O.3        1 UNL1     -0.4605
     8 C         -3.761974   -1.13589   3.733212 C.ar        1 UNL1     0.1310
     9 C         -4.589231   -2.207834   4.085177 C.ar        1 UNL1     0.0226
     10 C         -5.059823   -2.359178   5.394964 C.ar        1 UNL1     0.1343
     11 C         -4.694804   -1.45447   6.391009 C.ar        1 UNL1     0.1007
     12 C         -3.90264   -0.357259   6.042603 C.ar        1 UNL1     0.1389
     13 C         -3.431754   -0.203852   4.724968 C.ar        1 UNL1     0.0229
     14 C         -5.0945   -1.612797   7.808517 C.2        1 UNL1     0.1740
     15 C         -4.432319   -0.678438   8.778073 C.3        1 UNL1     0.0520
     16 C         -4.3467   0.699836   8.136991 C.3        1 UNL1     0.1322
     17 O         -3.572806   0.651232   6.918059 O.3        1 UNL1     -0.4828
     18 C         -5.700206   1.401542   8.001515 C.ar        1 UNL1     -0.0067
     19 C         -6.052715   1.994791   6.771878 C.ar        1 UNL1     -0.0516
     20 C         -7.262108   2.685167   6.62796 C.ar        1 UNL1     -0.0198
     21 C         -8.122295   2.795408   7.705806 C.ar        1 UNL1     0.1169
     22 C         -7.818322   2.193345   8.919873 C.ar        1 UNL1     -0.0198
     23 C         -6.617453   1.487168   9.058738 C.ar        1 UNL1     -0.0516
     24 O         -9.273555   3.507547   7.538892 O.3        1 UNL1     -0.5068
     25 O         -5.853593   -2.494277   8.202541 O.2        1 UNL1     -0.2917
     26 O         -5.864057   -3.425816   5.67259 O.3        1 UNL1     -0.5058
     27 O         -0.246861   -0.20939   2.53873 O.3        1 UNL1     -0.3648
     28 O         0.266627   -1.950125   -0.580301 O.3        1 UNL1     -0.3841
     29 O         -2.457567   0.360272   -0.277513 O.3        1 UNL1     -0.3863
     30 O         -2.450309   -3.313825   -0.244863 O.3        1 UNL1     -0.3829
     31 H         0.609113   -1.857356   1.811059 H        1 UNL1     0.0937
     32 H         0.0   0.0   0.0 H        1 UNL1     0.0671
     33 H         -1.858904   -1.185625   -1.43317 H        1 UNL1     0.0649
     34 H         -3.845569   -1.832577   0.021756 H        1 UNL1     0.0683
     35 H         -3.218032   -2.950506   2.112373 H        1 UNL1     0.1085
     36 H         -4.863145   -2.975534   3.369824 H        1 UNL1     0.0691
     37 H         -2.817414   0.659656   4.479137 H        1 UNL1     0.0691
     38 H         -3.434969   -1.076619   8.993181 H        1 UNL1     0.0385
     39 H         -5.004348   -0.665827   9.712098 H        1 UNL1     0.0385
     40 H         -3.756545   1.334603   8.811757 H        1 UNL1     0.0789
     41 H         -5.390525   1.930186   5.913402 H        1 UNL1     0.0623
     42 H         -7.517158   3.148475   5.678061 H        1 UNL1     0.0654
     43 H         -8.491666   2.260665   9.766033 H        1 UNL1     0.0654
     44 H         -6.41705   1.020393   10.018324 H        1 UNL1     0.0623
     45 H         -9.038447   4.42187   7.31206 H        1 UNL1     0.2921
     46 H         -5.473067   -3.947388   6.39127 H        1 UNL1     0.2922
     47 H         0.497372   0.346396   2.2684 H        1 UNL1     0.2126
     48 H         1.200863   -1.875628   -0.305739 H        1 UNL1     0.2101
     49 H         -2.017843   0.94424   -0.915806 H        1 UNL1     0.2100
     50 H         -2.681488   -3.322611   -1.196804 H        1 UNL1     0.2102
@<TRIPOS>BOND
     1     1     2    1
     2     1     6    1
     3     2     3    1
     4     3     4    1
     5     3    29    1
     6     3    33    1
     7     4     5    1
     8     5     6    1
     9     5     7    1
    10     5    35    1
    11     7     8    1
    12     8     9   ar
    13     8    13   ar
    14     9    10   ar
    15     9    36    1
    16    10    11   ar
    17    10    26    1
    18    11    12   ar
    19    11    14    1
    20    12    13   ar
    21    12    17    1
    22    13    37    1
    23    14    15    1
    24    14    25    2
    25    15    16    1
    26    15    38    1
    27    15    39    1
    28    16    17    1
    29    16    18    1
    30    16    40    1
    31    18    19   ar
    32    18    23   ar
    33    19    20   ar
    34    19    41    1
    35    20    21   ar
    36    20    42    1
    37    21    22   ar
    38    21    24    1
    39    22    23   ar
    40    22    43    1
    41    23    44    1
    42    24    45    1
    43    26    46    1
    44    27    47    1
    45    28    48    1
    46    29    49    1
    47    30    50    1
    48     1    31    1
    49     1    27    1
    50     2    32    1
    51     2    28    1
    52     4    34    1
    53     4    30    1
