@<TRIPOS>MOLECULE
*****
 50 53 0 0 0
SMALL
GASTEIGER

@<TRIPOS>ATOM
     1 C         -0.335338   -1.329836   1.699968 C.3        1 UNL1     0.1889
     2 C         -0.464231   -0.974851   0.194208 C.3        1 UNL1     0.1342
     3 C         -1.904695   -0.959222   -0.339912 C.3        1 UNL1     0.1174
     4 C         -2.793217   -2.017787   0.318183 C.3        1 UNL1     0.1456
     5 C         -2.642641   -2.045247   1.850154 C.3        1 UNL1     0.2326
     6 O         -1.278344   -2.26606   2.200587 O.3        1 UNL1     -0.3076
     7 O         -3.21605   -0.898023   2.503147 O.3        1 UNL1     -0.4605
     8 C         -3.727189   -1.114222   3.77024 C.ar        1 UNL1     0.1310
     9 C         -4.545723   -2.186253   4.141794 C.ar        1 UNL1     0.0226
     10 C         -5.000017   -2.327547   5.45844 C.ar        1 UNL1     0.1343
     11 C         -4.626902   -1.41232   6.441794 C.ar        1 UNL1     0.1007
     12 C         -3.843522   -0.315133   6.07399 C.ar        1 UNL1     0.1389
     13 C         -3.389036   -0.171846   4.749475 C.ar        1 UNL1     0.0229
     14 C         -5.008991   -1.559327   7.865364 C.2        1 UNL1     0.1740
     15 C         -4.339178   -0.613489   8.818406 C.3        1 UNL1     0.0520
     16 C         -4.266947   0.759216   8.163867 C.3        1 UNL1     0.1322
     17 O         -3.50746   0.702629   6.936249 O.3        1 UNL1     -0.4828
     18 C         -5.62488   1.454169   8.038242 C.ar        1 UNL1     -0.0067
     19 C         -6.001187   2.020882   6.803154 C.ar        1 UNL1     -0.0516
     20 C         -7.215145   2.70474   6.666741 C.ar        1 UNL1     -0.0198
     21 C         -8.056282   2.834822   7.757335 C.ar        1 UNL1     0.1169
     22 C         -7.728753   2.258839   8.977911 C.ar        1 UNL1     -0.0198
     23 C         -6.523357   1.559057   9.109752 C.ar        1 UNL1     -0.0516
     24 O         -9.212596   3.540124   7.596443 O.3        1 UNL1     -0.5068
     25 O         -5.759657   -2.440243   8.276429 O.2        1 UNL1     -0.2917
     26 O         -5.796438   -3.394856   5.75534 O.3        1 UNL1     -0.5058
     27 O         -0.228638   -0.192818   2.541747 O.3        1 UNL1     -0.3648
     28 O         0.265125   -1.953596   -0.569208 O.3        1 UNL1     -0.3841
     29 O         -2.459946   0.35525   -0.262507 O.3        1 UNL1     -0.3863
     30 O         -2.447548   -3.318536   -0.205509 O.3        1 UNL1     -0.3829
     31 H         0.624374   -1.844483   1.819001 H        1 UNL1     0.0937
     32 H         0.0   0.0   0.0 H        1 UNL1     0.0671
     33 H         -1.867398   -1.197526   -1.412078 H        1 UNL1     0.0649
     34 H         -3.842868   -1.837347   0.06113 H        1 UNL1     0.0683
     35 H         -3.199082   -2.940538   2.154634 H        1 UNL1     0.1085
     36 H         -4.824959   -2.961548   3.436766 H        1 UNL1     0.0691
     37 H         -2.781269   0.691864   4.488483 H        1 UNL1     0.0691
     38 H         -3.337685   -1.005649   9.025163 H        1 UNL1     0.0385
     39 H         -4.900067   -0.594675   9.759059 H        1 UNL1     0.0385
     40 H         -3.671427   1.402496   8.825733 H        1 UNL1     0.0789
     41 H         -5.354241   1.940405   5.934457 H        1 UNL1     0.0623
     42 H         -7.488598   3.147595   5.712218 H        1 UNL1     0.0654
     43 H         -8.38708   2.341745   9.83444 H        1 UNL1     0.0654
     44 H         -6.304359   1.112781   10.075009 H        1 UNL1     0.0623
     45 H         -8.984705   4.447992   7.338452 H        1 UNL1     0.2921
     46 H         -5.394043   -3.90904   6.473048 H        1 UNL1     0.2922
     47 H         0.515461   0.359993   2.265022 H        1 UNL1     0.2126
     48 H         1.201606   -1.874133   -0.303837 H        1 UNL1     0.2101
     49 H         -2.019676   0.937648   -0.901859 H        1 UNL1     0.2100
     50 H         -2.680213   -3.332032   -1.157032 H        1 UNL1     0.2102
@<TRIPOS>BOND
     1     1     2    1
     2     1     6    1
     3     2     3    1
     4     3     4    1
     5     3    29    1
     6     3    33    1
     7     4     5    1
     8     5     6    1
     9     5     7    1
    10     5    35    1
    11     7     8    1
    12     8     9   ar
    13     8    13   ar
    14     9    10   ar
    15     9    36    1
    16    10    11   ar
    17    10    26    1
    18    11    12   ar
    19    11    14    1
    20    12    13   ar
    21    12    17    1
    22    13    37    1
    23    14    15    1
    24    14    25    2
    25    15    16    1
    26    15    38    1
    27    15    39    1
    28    16    17    1
    29    16    18    1
    30    16    40    1
    31    18    19   ar
    32    18    23   ar
    33    19    20   ar
    34    19    41    1
    35    20    21   ar
    36    20    42    1
    37    21    22   ar
    38    21    24    1
    39    22    23   ar
    40    22    43    1
    41    23    44    1
    42    24    45    1
    43    26    46    1
    44    27    47    1
    45    28    48    1
    46    29    49    1
    47    30    50    1
    48     1    31    1
    49     1    27    1
    50     2    32    1
    51     2    28    1
    52     4    34    1
    53     4    30    1
