@<TRIPOS>MOLECULE
*****
 50 53 0 0 0
SMALL
GASTEIGER

@<TRIPOS>ATOM
     1 C         -0.335338   -1.329836   1.699968 C.3        1 UNL1     0.1889
     2 C         -0.464231   -0.974851   0.194208 C.3        1 UNL1     0.1342
     3 C         -1.904695   -0.959222   -0.339912 C.3        1 UNL1     0.1174
     4 C         -2.793217   -2.017787   0.318183 C.3        1 UNL1     0.1456
     5 C         -2.642641   -2.045247   1.850154 C.3        1 UNL1     0.2326
     6 O         -1.278344   -2.26606   2.200587 O.3        1 UNL1     -0.3076
     7 O         -3.21605   -0.898023   2.503147 O.3        1 UNL1     -0.4605
     8 C         -3.733982   -1.115883   3.767193 C.ar        1 UNL1     0.1310
     9 C         -4.5573   -2.186529   4.132113 C.ar        1 UNL1     0.0226
     10 C         -5.018423   -2.329764   5.446172 C.ar        1 UNL1     0.1343
     11 C         -4.647585   -1.417982   6.433579 C.ar        1 UNL1     0.1007
     12 C         -3.859369   -0.322091   6.072299 C.ar        1 UNL1     0.1389
     13 C         -3.39801   -0.176845   4.750376 C.ar        1 UNL1     0.0229
     14 C         -5.037044   -1.567392   7.8549 C.2        1 UNL1     0.1740
     15 C         -4.369278   -0.625753   8.81352 C.3        1 UNL1     0.0520
     16 C         -4.290032   0.748337   8.162709 C.3        1 UNL1     0.1322
     17 O         -3.524706   0.692624   6.938682 O.3        1 UNL1     -0.4828
     18 C         -5.645398   1.44738   8.032152 C.ar        1 UNL1     -0.0067
     19 C         -6.013883   2.018558   6.796762 C.ar        1 UNL1     -0.0516
     20 C         -7.225252   2.706137   6.656115 C.ar        1 UNL1     -0.0198
     21 C         -8.071546   2.83551   7.742797 C.ar        1 UNL1     0.1169
     22 C         -7.751791   2.255238   8.963403 C.ar        1 UNL1     -0.0198
     23 C         -6.549004   1.551769   9.099389 C.ar        1 UNL1     -0.0516
     24 O         -9.225089   3.544444   7.578024 O.3        1 UNL1     -0.5068
     25 O         -5.792156   -2.44721   8.26013 O.2        1 UNL1     -0.2917
     26 O         -5.81925   -3.395568   5.736559 O.3        1 UNL1     -0.5058
     27 O         -0.228638   -0.192818   2.541747 O.3        1 UNL1     -0.3648
     28 O         0.265125   -1.953596   -0.569208 O.3        1 UNL1     -0.3841
     29 O         -2.459946   0.35525   -0.262507 O.3        1 UNL1     -0.3863
     30 O         -2.447548   -3.318536   -0.205509 O.3        1 UNL1     -0.3829
     31 H         0.624374   -1.844483   1.819001 H        1 UNL1     0.0937
     32 H         0.0   0.0   0.0 H        1 UNL1     0.0671
     33 H         -1.867398   -1.197526   -1.412078 H        1 UNL1     0.0649
     34 H         -3.842868   -1.837347   0.06113 H        1 UNL1     0.0683
     35 H         -3.199082   -2.940538   2.154634 H        1 UNL1     0.1085
     36 H         -4.835235   -2.959321   3.42383 H        1 UNL1     0.0691
     37 H         -2.786576   0.6858   4.494475 H        1 UNL1     0.0691
     38 H         -3.369902   -1.021208   9.024208 H        1 UNL1     0.0385
     39 H         -4.93471   -0.607667   9.751464 H        1 UNL1     0.0385
     40 H         -3.695973   1.388337   8.829052 H        1 UNL1     0.0789
     41 H         -5.362764   1.938709   5.93113 H        1 UNL1     0.0623
     42 H         -7.492646   3.152395   5.70146 H        1 UNL1     0.0654
     43 H         -8.414222   2.33758   9.816817 H        1 UNL1     0.0654
     44 H         -6.336127   1.102212   10.064494 H        1 UNL1     0.0623
     45 H         -8.993403   4.452392   7.323725 H        1 UNL1     0.2921
     46 H         -5.421802   -3.912621   6.454962 H        1 UNL1     0.2922
     47 H         0.48762   0.382333   2.238374 H        1 UNL1     0.2126
     48 H         1.197974   -1.889699   -0.28735 H        1 UNL1     0.2101
     49 H         -2.019795   0.937605   -0.90198 H        1 UNL1     0.2100
     50 H         -2.680213   -3.332032   -1.157032 H        1 UNL1     0.2102
@<TRIPOS>BOND
     1     1     2    1
     2     1     6    1
     3     2     3    1
     4     3     4    1
     5     3    29    1
     6     3    33    1
     7     4     5    1
     8     5     6    1
     9     5     7    1
    10     5    35    1
    11     7     8    1
    12     8     9   ar
    13     8    13   ar
    14     9    10   ar
    15     9    36    1
    16    10    11   ar
    17    10    26    1
    18    11    12   ar
    19    11    14    1
    20    12    13   ar
    21    12    17    1
    22    13    37    1
    23    14    15    1
    24    14    25    2
    25    15    16    1
    26    15    38    1
    27    15    39    1
    28    16    17    1
    29    16    18    1
    30    16    40    1
    31    18    19   ar
    32    18    23   ar
    33    19    20   ar
    34    19    41    1
    35    20    21   ar
    36    20    42    1
    37    21    22   ar
    38    21    24    1
    39    22    23   ar
    40    22    43    1
    41    23    44    1
    42    24    45    1
    43    26    46    1
    44    27    47    1
    45    28    48    1
    46    29    49    1
    47    30    50    1
    48     1    31    1
    49     1    27    1
    50     2    32    1
    51     2    28    1
    52     4    34    1
    53     4    30    1
