@<TRIPOS>MOLECULE
*****
 50 53 0 0 0
SMALL
GASTEIGER

@<TRIPOS>ATOM
     1 C         -0.333942   -1.330239   1.699927 C.3        1 UNL1     0.1889
     2 C         -0.461528   -0.976209   0.193831 C.3        1 UNL1     0.1342
     3 C         -1.901179   -0.965227   -0.342591 C.3        1 UNL1     0.1174
     4 C         -2.787476   -2.026288   0.314482 C.3        1 UNL1     0.1456
     5 C         -2.639261   -2.052719   1.846701 C.3        1 UNL1     0.2326
     6 O         -1.274849   -2.269187   2.199392 O.3        1 UNL1     -0.3076
     7 O         -3.217251   -0.907031   2.498351 O.3        1 UNL1     -0.4605
     8 C         -3.729317   -1.124234   3.764897 C.ar        1 UNL1     0.1310
     9 C         -4.544828   -2.198736   4.135961 C.ar        1 UNL1     0.0226
     10 C         -5.000358   -2.340824   5.452094 C.ar        1 UNL1     0.1343
     11 C         -4.631501   -1.423871   6.435446 C.ar        1 UNL1     0.1007
     12 C         -3.851229   -0.324326   6.068075 C.ar        1 UNL1     0.1389
     13 C         -3.395504   -0.180249   4.744071 C.ar        1 UNL1     0.0229
     14 C         -5.014945   -1.571381   7.8586 C.2        1 UNL1     0.1740
     15 C         -4.349451   -0.622865   8.812006 C.3        1 UNL1     0.0520
     16 C         -4.280854   0.749726   8.156838 C.3        1 UNL1     0.1322
     17 O         -3.519603   0.694977   6.93023 O.3        1 UNL1     -0.4828
     18 C         -5.640884   1.44018   8.029097 C.ar        1 UNL1     -0.0067
     19 C         -5.840905   2.392637   7.008789 C.ar        1 UNL1     -0.0516
     20 C         -7.056776   3.076941   6.893251 C.ar        1 UNL1     -0.0198
     21 C         -8.075544   2.82369   7.794252 C.ar        1 UNL1     0.1169
     22 C         -7.920467   1.867266   8.78926 C.ar        1 UNL1     -0.0198
     23 C         -6.711213   1.169517   8.893696 C.ar        1 UNL1     -0.0516
     24 O         -9.232006   3.536743   7.673622 O.3        1 UNL1     -0.5068
     25 O         -5.763262   -2.454527   8.26916 O.2        1 UNL1     -0.2917
     26 O         -5.793676   -3.410571   5.748529 O.3        1 UNL1     -0.5058
     27 O         -0.232097   -0.192587   2.541451 O.3        1 UNL1     -0.3648
     28 O         0.272065   -1.952977   -0.568055 O.3        1 UNL1     -0.3841
     29 O         -2.460609   0.347553   -0.266562 O.3        1 UNL1     -0.3863
     30 O         -2.436956   -3.326157   -0.208172 O.3        1 UNL1     -0.3829
     31 H         0.627164   -1.841875   1.820683 H        1 UNL1     0.0937
     32 H         0.0   0.0   0.0 H        1 UNL1     0.0671
     33 H         -1.861435   -1.203809   -1.414607 H        1 UNL1     0.0649
     34 H         -3.837267   -1.849186   0.055688 H        1 UNL1     0.0683
     35 H         -3.193419   -2.949611   2.150628 H        1 UNL1     0.1085
     36 H         -4.820624   -2.975307   3.430981 H        1 UNL1     0.0691
     37 H         -2.790222   0.685303   4.483408 H        1 UNL1     0.0691
     38 H         -3.346952   -1.011647   9.020261 H        1 UNL1     0.0385
     39 H         -4.911612   -0.60539   9.751926 H        1 UNL1     0.0385
     40 H         -3.68829   1.395291   8.819132 H        1 UNL1     0.0789
     41 H         -5.053601   2.616014   6.294712 H        1 UNL1     0.0623
     42 H         -7.19459   3.817694   6.109475 H        1 UNL1     0.0654
     43 H         -8.717084   1.650275   9.49085 H        1 UNL1     0.0654
     44 H         -6.628542   0.42166   9.676461 H        1 UNL1     0.0623
     45 H         -9.023779   4.479104   7.779986 H        1 UNL1     0.2921
     46 H         -5.390446   -3.923162   6.466908 H        1 UNL1     0.2922
     47 H         0.510731   0.362418   2.265706 H        1 UNL1     0.2126
     48 H         1.204261   -1.886096   -0.284734 H        1 UNL1     0.2101
     49 H         -2.021121   0.931072   -0.905428 H        1 UNL1     0.2100
     50 H         -2.66806   -3.340721   -1.16006 H        1 UNL1     0.2102
@<TRIPOS>BOND
     1     1     2    1
     2     1     6    1
     3     2     3    1
     4     3     4    1
     5     3    29    1
     6     3    33    1
     7     4     5    1
     8     5     6    1
     9     5     7    1
    10     5    35    1
    11     7     8    1
    12     8     9   ar
    13     8    13   ar
    14     9    10   ar
    15     9    36    1
    16    10    11   ar
    17    10    26    1
    18    11    12   ar
    19    11    14    1
    20    12    13   ar
    21    12    17    1
    22    13    37    1
    23    14    15    1
    24    14    25    2
    25    15    16    1
    26    15    38    1
    27    15    39    1
    28    16    17    1
    29    16    18    1
    30    16    40    1
    31    18    19   ar
    32    18    23   ar
    33    19    20   ar
    34    19    41    1
    35    20    21   ar
    36    20    42    1
    37    21    22   ar
    38    21    24    1
    39    22    23   ar
    40    22    43    1
    41    23    44    1
    42    24    45    1
    43    26    46    1
    44    27    47    1
    45    28    48    1
    46    29    49    1
    47    30    50    1
    48     1    31    1
    49     1    27    1
    50     2    32    1
    51     2    28    1
    52     4    34    1
    53     4    30    1
