@<TRIPOS>MOLECULE
*****
 50 53 0 0 0
SMALL
GASTEIGER

@<TRIPOS>ATOM
     1 C         1.45123   1.406299   -0.828891 C.3        1 UNL1     0.1889
     2 C         0.568149   0.133469   -0.928953 C.3        1 UNL1     0.1342
     3 C         1.339363   -1.159636   -1.234854 C.3        1 UNL1     0.1174
     4 C         2.534718   -0.932177   -2.163566 C.3        1 UNL1     0.1456
     5 C         3.388094   0.277818   -1.741636 C.3        1 UNL1     0.2326
     6 O         2.578134   1.450143   -1.69177 O.3        1 UNL1     -0.3076
     7 O         4.138503   0.056694   -0.533617 O.3        1 UNL1     -0.4605
     8 C         4.653609   1.186816   0.075498 C.ar        1 UNL1     0.1310
     9 C         5.967112   1.332567   0.53459 C.ar        1 UNL1     0.0226
     10 C         6.399374   2.526403   1.124342 C.ar        1 UNL1     0.1343
     11 C         5.534337   3.612821   1.247832 C.ar        1 UNL1     0.1007
     12 C         4.208894   3.465338   0.830419 C.ar        1 UNL1     0.1389
     13 C         3.773778   2.263942   0.239868 C.ar        1 UNL1     0.0229
     14 C         5.961314   4.925049   1.786258 C.2        1 UNL1     0.1740
     15 C         4.96885   6.040917   1.639968 C.3        1 UNL1     0.0520
     16 C         3.578895   5.490259   1.927642 C.3        1 UNL1     0.1322
     17 O         3.245206   4.431682   1.002906 O.3        1 UNL1     -0.4828
     18 C         3.346274   5.143048   3.400074 C.ar        1 UNL1     -0.0067
     19 C         3.962267   3.998886   3.947485 C.ar        1 UNL1     -0.0516
     20 C         3.732858   3.626408   5.27737 C.ar        1 UNL1     -0.0198
     21 C         2.885687   4.383919   6.066234 C.ar        1 UNL1     0.1169
     22 C         2.290823   5.534708   5.565572 C.ar        1 UNL1     -0.0198
     23 C         2.534609   5.917703   4.241208 C.ar        1 UNL1     -0.0516
     24 O         2.656491   3.969118   7.345221 O.3        1 UNL1     -0.5068
     25 O         7.07803   5.133287   2.253235 O.2        1 UNL1     -0.2917
     26 O         7.692629   2.603575   1.552268 O.3        1 UNL1     -0.5058
     27 O         1.797757   1.750695   0.503062 O.3        1 UNL1     -0.3648
     28 O         -0.387292   0.323386   -1.989033 O.3        1 UNL1     -0.3841
     29 O         1.697414   -1.834257   -0.027039 O.3        1 UNL1     -0.3863
     30 O         2.055216   -0.715524   -3.508493 O.3        1 UNL1     -0.3829
     31 H         0.833418   2.243426   -1.171827 H        1 UNL1     0.0937
     32 H         0.0   -0.0   0.0 H        1 UNL1     0.0671
     33 H         0.655427   -1.842097   -1.758495 H        1 UNL1     0.0649
     34 H         3.164853   -1.828121   -2.188354 H        1 UNL1     0.0683
     35 H         4.089703   0.410087   -2.57478 H        1 UNL1     0.1085
     36 H         6.703035   0.544741   0.416832 H        1 UNL1     0.0691
     37 H         2.736576   2.174077   -0.075772 H        1 UNL1     0.0691
     38 H         5.040588   6.415464   0.613277 H        1 UNL1     0.0385
     39 H         5.240858   6.854754   2.320748 H        1 UNL1     0.0385
     40 H         2.860633   6.289681   1.70061 H        1 UNL1     0.0789
     41 H         4.624255   3.382524   3.346219 H        1 UNL1     0.0623
     42 H         4.204348   2.73531   5.684375 H        1 UNL1     0.0654
     43 H         1.637561   6.143566   6.179126 H        1 UNL1     0.0654
     44 H         2.061667   6.828298   3.886261 H        1 UNL1     0.0623
     45 H         3.289663   3.264206   7.557138 H        1 UNL1     0.2921
     46 H         7.78316   3.340121   2.177341 H        1 UNL1     0.2922
     47 H         1.167449   1.360449   1.124576 H        1 UNL1     0.2126
     48 H         -0.901718   1.121905   -1.762172 H        1 UNL1     0.2101
     49 H         1.287718   -2.713755   -0.006371 H        1 UNL1     0.2100
     50 H         1.615386   0.159454   -3.534492 H        1 UNL1     0.2102
@<TRIPOS>BOND
     1     1     2    1
     2     1     6    1
     3     2     3    1
     4     3     4    1
     5     3    29    1
     6     3    33    1
     7     4     5    1
     8     5     6    1
     9     5     7    1
    10     5    35    1
    11     7     8    1
    12     8     9   ar
    13     8    13   ar
    14     9    10   ar
    15     9    36    1
    16    10    11   ar
    17    10    26    1
    18    11    12   ar
    19    11    14    1
    20    12    13   ar
    21    12    17    1
    22    13    37    1
    23    14    15    1
    24    14    25    2
    25    15    16    1
    26    15    38    1
    27    15    39    1
    28    16    17    1
    29    16    18    1
    30    16    40    1
    31    18    19   ar
    32    18    23   ar
    33    19    20   ar
    34    19    41    1
    35    20    21   ar
    36    20    42    1
    37    21    22   ar
    38    21    24    1
    39    22    23   ar
    40    22    43    1
    41    23    44    1
    42    24    45    1
    43    26    46    1
    44    27    47    1
    45    28    48    1
    46    29    49    1
    47    30    50    1
    48     1    31    1
    49     1    27    1
    50     2    32    1
    51     2    28    1
    52     4    34    1
    53     4    30    1
