@<TRIPOS>MOLECULE
*****
 50 53 0 0 0
SMALL
GASTEIGER

@<TRIPOS>ATOM
     1 C         -0.374491   -1.604343   1.4341 C.3        1 UNL1     0.1889
     2 C         -0.377691   -1.029974   -0.008131 C.3        1 UNL1     0.1342
     3 C         -1.74626   -1.056357   -0.705831 C.3        1 UNL1     0.1174
     4 C         -2.58441   -2.27851   -0.322469 C.3        1 UNL1     0.1456
     5 C         -2.59689   -2.532904   1.195916 C.3        1 UNL1     0.2326
     6 O         -1.262442   -2.686173   1.674063 O.3        1 UNL1     -0.3076
     7 O         -3.353997   -1.556851   1.934448 O.3        1 UNL1     -0.4605
     8 C         -3.981871   -2.015644   3.07848 C.ar        1 UNL1     0.1310
     9 C         -4.72103   -3.199304   3.177949 C.ar        1 UNL1     0.0226
     10 C         -5.306277   -3.587488   4.389024 C.ar        1 UNL1     0.1343
     11 C         -5.146371   -2.81262   5.537001 C.ar        1 UNL1     0.1007
     12 C         -4.445   -1.607827   5.440374 C.ar        1 UNL1     0.1389
     13 C         -3.858869   -1.216409   4.221902 C.ar        1 UNL1     0.0229
     14 C         -5.671973   -3.217331   6.861427 C.2        1 UNL1     0.1740
     15 C         -5.218689   -2.382136   8.02269 C.3        1 UNL1     0.0520
     16 C         -5.215713   -0.921404   7.593493 C.3        1 UNL1     0.1322
     17 O         -4.31851   -0.715943   6.479993 O.3        1 UNL1     -0.4828
     18 C         -6.615411   -0.334042   7.39709 C.ar        1 UNL1     -0.0067
     19 C         -7.089352   0.642247   8.297343 C.ar        1 UNL1     -0.0516
     20 C         -8.382073   1.165445   8.174475 C.ar        1 UNL1     -0.0198
     21 C         -9.211301   0.71623   7.162341 C.ar        1 UNL1     0.1169
     22 C         -8.761432   -0.21982   6.240243 C.ar        1 UNL1     -0.0198
     23 C         -7.462319   -0.729642   6.351796 C.ar        1 UNL1     -0.0516
     24 O         -10.476769   1.220914   7.096887 O.3        1 UNL1     -0.5068
     25 O         -6.368614   -4.213548   7.036722 O.2        1 UNL1     -0.2917
     26 O         -6.015509   -4.752685   4.418865 O.3        1 UNL1     -0.5058
     27 O         -0.478341   -0.608662   2.439396 O.3        1 UNL1     -0.3648
     28 O         0.527792   -1.809352   -0.811484 O.3        1 UNL1     -0.3841
     29 O         -2.441228   0.176174   -0.50578 O.3        1 UNL1     -0.3863
     30 O         -2.050249   -3.445752   -0.984215 O.3        1 UNL1     -0.3829
     31 H         0.615529   -2.045622   1.592885 H        1 UNL1     0.0937
     32 H         0.0   0.0   0.0 H        1 UNL1     0.0671
     33 H         -1.569482   -1.119209   -1.78866 H        1 UNL1     0.0649
     34 H         -3.613547   -2.15218   -0.676471 H        1 UNL1     0.0683
     35 H         -3.085904   -3.509964   1.296412 H        1 UNL1     0.1085
     36 H         -4.834805   -3.872998   2.335742 H        1 UNL1     0.0691
     37 H         -3.318831   -0.273314   4.172668 H        1 UNL1     0.0691
     38 H         -4.212091   -2.715172   8.297233 H        1 UNL1     0.0385
     39 H         -5.882791   -2.561907   8.874999 H        1 UNL1     0.0385
     40 H         -4.770729   -0.343589   8.414857 H        1 UNL1     0.0789
     41 H         -6.461102   1.004613   9.105825 H        1 UNL1     0.0623
     42 H         -8.740126   1.909143   8.882094 H        1 UNL1     0.0654
     43 H         -9.397264   -0.56746   5.434777 H        1 UNL1     0.0654
     44 H         -7.140255   -1.451746   5.607696 H        1 UNL1     0.0623
     45 H         -10.496682   1.911356   6.414531 H        1 UNL1     0.2921
     46 H         -5.852922   -5.208943   5.259582 H        1 UNL1     0.2922
     47 H         0.352889   -0.539686   2.929455 H        1 UNL1     0.2126
     48 H         0.087058   -1.951842   -1.671241 H        1 UNL1     0.2101
     49 H         -3.077641   0.082026   0.220793 H        1 UNL1     0.2100
     50 H         -2.344506   -3.423854   -1.91837 H        1 UNL1     0.2102
@<TRIPOS>BOND
     1     1     2    1
     2     1     6    1
     3     2     3    1
     4     3     4    1
     5     3    29    1
     6     3    33    1
     7     4     5    1
     8     5     6    1
     9     5     7    1
    10     5    35    1
    11     7     8    1
    12     8     9   ar
    13     8    13   ar
    14     9    10   ar
    15     9    36    1
    16    10    11   ar
    17    10    26    1
    18    11    12   ar
    19    11    14    1
    20    12    13   ar
    21    12    17    1
    22    13    37    1
    23    14    15    1
    24    14    25    2
    25    15    16    1
    26    15    38    1
    27    15    39    1
    28    16    17    1
    29    16    18    1
    30    16    40    1
    31    18    19   ar
    32    18    23   ar
    33    19    20   ar
    34    19    41    1
    35    20    21   ar
    36    20    42    1
    37    21    22   ar
    38    21    24    1
    39    22    23   ar
    40    22    43    1
    41    23    44    1
    42    24    45    1
    43    26    46    1
    44    27    47    1
    45    28    48    1
    46    29    49    1
    47    30    50    1
    48     1    31    1
    49     1    27    1
    50     2    32    1
    51     2    28    1
    52     4    34    1
    53     4    30    1
