@<TRIPOS>MOLECULE
*****
 50 53 0 0 0
SMALL
GASTEIGER

@<TRIPOS>ATOM
     1 C         0.10896   -0.679297   -2.073038 C.3        1 UNL1     0.1889
     2 C         0.578854   -0.718112   -0.593973 C.3        1 UNL1     0.1342
     3 C         2.076913   -0.445062   -0.389697 C.3        1 UNL1     0.1174
     4 C         2.941299   -0.998289   -1.525432 C.3        1 UNL1     0.1456
     5 C         2.3774   -0.656366   -2.916644 C.3        1 UNL1     0.2326
     6 O         1.043715   -1.146547   -3.034446 O.3        1 UNL1     -0.3076
     7 O         2.500753   0.736136   -3.258758 O.3        1 UNL1     -0.4605
     8 C         1.732517   1.168868   -4.324631 C.ar        1 UNL1     0.1310
     9 C         2.192354   1.949117   -5.390963 C.ar        1 UNL1     0.0226
     10 C         1.338146   2.32324   -6.43512 C.ar        1 UNL1     0.1343
     11 C         0.007978   1.905792   -6.450298 C.ar        1 UNL1     0.1007
     12 C         -0.473286   1.160763   -5.370436 C.ar        1 UNL1     0.1389
     13 C         0.385142   0.786938   -4.319348 C.ar        1 UNL1     0.0229
     14 C         -0.916125   2.20148   -7.569563 C.2        1 UNL1     0.1740
     15 C         -2.236585   1.490083   -7.526553 C.3        1 UNL1     0.0520
     16 C         -2.729348   1.475599   -6.08609 C.3        1 UNL1     0.1322
     17 O         -1.790156   0.788847   -5.229727 O.3        1 UNL1     -0.4828
     18 C         -3.170351   2.848131   -5.571896 C.ar        1 UNL1     -0.0067
     19 C         -2.195377   3.82293   -5.27625 C.ar        1 UNL1     -0.0516
     20 C         -2.561548   5.071516   -4.759612 C.ar        1 UNL1     -0.0198
     21 C         -3.895776   5.354197   -4.527762 C.ar        1 UNL1     0.1169
     22 C         -4.881545   4.427117   -4.840207 C.ar        1 UNL1     -0.0198
     23 C         -4.517053   3.185298   -5.374143 C.ar        1 UNL1     -0.0516
     24 O         -4.211411   6.566572   -3.988391 O.3        1 UNL1     -0.5068
     25 O         -0.616161   2.914329   -8.523688 O.2        1 UNL1     -0.2917
     26 O         1.848604   3.08587   -7.444781 O.3        1 UNL1     -0.5058
     27 O         -0.456699   0.564744   -2.454063 O.3        1 UNL1     -0.3648
     28 O         0.305875   -2.02813   -0.062898 O.3        1 UNL1     -0.3841
     29 O         2.310212   0.942926   -0.142324 O.3        1 UNL1     -0.3863
     30 O         3.026647   -2.434437   -1.399404 O.3        1 UNL1     -0.3829
     31 H         -0.720825   -1.389641   -2.156394 H        1 UNL1     0.0937
     32 H         0.0   0.0   0.0 H        1 UNL1     0.0671
     33 H         2.389804   -0.961678   0.528414 H        1 UNL1     0.0649
     34 H         3.96175   -0.608068   -1.442916 H        1 UNL1     0.0683
     35 H         2.995868   -1.245939   -3.604962 H        1 UNL1     0.1085
     36 H         3.229103   2.258455   -5.465661 H        1 UNL1     0.0691
     37 H         -0.014347   0.207668   -3.48968 H        1 UNL1     0.0691
     38 H         -2.077014   0.472797   -7.899638 H        1 UNL1     0.0385
     39 H         -2.93836   1.994936   -8.199169 H        1 UNL1     0.0385
     40 H         -3.632667   0.851248   -6.059248 H        1 UNL1     0.0789
     41 H         -1.140735   3.622106   -5.440723 H        1 UNL1     0.0623
     42 H         -1.799487   5.810437   -4.524516 H        1 UNL1     0.0654
     43 H         -5.930474   4.643749   -4.676718 H        1 UNL1     0.0654
     44 H         -5.314107   2.488991   -5.616434 H        1 UNL1     0.0623
     45 H         -3.41947   7.127852   -4.01101 H        1 UNL1     0.2921
     46 H         1.122123   3.50432   -7.933183 H        1 UNL1     0.2922
     47 H         -0.765315   1.04538   -1.673291 H        1 UNL1     0.2126
     48 H         -0.655305   -2.173253   -0.156727 H        1 UNL1     0.2101
     49 H         2.713801   1.058931   0.732578 H        1 UNL1     0.2100
     50 H         2.148469   -2.809079   -1.618855 H        1 UNL1     0.2102
@<TRIPOS>BOND
     1     1     2    1
     2     1     6    1
     3     2     3    1
     4     3     4    1
     5     3    29    1
     6     3    33    1
     7     4     5    1
     8     5     6    1
     9     5     7    1
    10     5    35    1
    11     7     8    1
    12     8     9   ar
    13     8    13   ar
    14     9    10   ar
    15     9    36    1
    16    10    11   ar
    17    10    26    1
    18    11    12   ar
    19    11    14    1
    20    12    13   ar
    21    12    17    1
    22    13    37    1
    23    14    15    1
    24    14    25    2
    25    15    16    1
    26    15    38    1
    27    15    39    1
    28    16    17    1
    29    16    18    1
    30    16    40    1
    31    18    19   ar
    32    18    23   ar
    33    19    20   ar
    34    19    41    1
    35    20    21   ar
    36    20    42    1
    37    21    22   ar
    38    21    24    1
    39    22    23   ar
    40    22    43    1
    41    23    44    1
    42    24    45    1
    43    26    46    1
    44    27    47    1
    45    28    48    1
    46    29    49    1
    47    30    50    1
    48     1    31    1
    49     1    27    1
    50     2    32    1
    51     2    28    1
    52     4    34    1
    53     4    30    1
