@<TRIPOS>MOLECULE
*****
 50 53 0 0 0
SMALL
GASTEIGER

@<TRIPOS>ATOM
     1 C         1.742925   -0.990792   0.866803 C.3        1 UNL1     0.1889
     2 C         0.212562   -0.746878   0.774953 C.3        1 UNL1     0.1342
     3 C         -0.446509   -0.305326   2.090674 C.3        1 UNL1     0.1174
     4 C         0.194989   -0.95062   3.321606 C.3        1 UNL1     0.1456
     5 C         1.733015   -0.891403   3.285075 C.3        1 UNL1     0.2326
     6 O         2.215473   -1.516967   2.098158 O.3        1 UNL1     -0.3076
     7 O         2.260469   0.43325   3.481055 O.3        1 UNL1     -0.4605
     8 C         3.434223   0.516929   4.20826 C.ar        1 UNL1     0.1310
     9 C         3.519407   0.744505   5.586031 C.ar        1 UNL1     0.0226
     10 C         4.758336   0.795429   6.235926 C.ar        1 UNL1     0.1343
     11 C         5.942228   0.59611   5.527045 C.ar        1 UNL1     0.1007
     12 C         5.87216   0.408862   4.144 C.ar        1 UNL1     0.1389
     13 C         4.626445   0.360334   3.490342 C.ar        1 UNL1     0.0229
     14 C         7.272839   0.556076   6.176679 C.2        1 UNL1     0.1740
     15 C         8.408723   0.110865   5.30312 C.3        1 UNL1     0.0520
     16 C         8.227838   0.730812   3.924387 C.3        1 UNL1     0.1322
     17 O         6.978761   0.310136   3.332856 O.3        1 UNL1     -0.4828
     18 C         8.467852   2.242126   3.892047 C.ar        1 UNL1     -0.0067
     19 C         9.789125   2.734102   3.912344 C.ar        1 UNL1     -0.0516
     20 C         10.042799   4.11078   3.931531 C.ar        1 UNL1     -0.0198
     21 C         8.986133   5.003664   3.938062 C.ar        1 UNL1     0.1169
     22 C         7.674504   4.55022   3.884626 C.ar        1 UNL1     -0.0198
     23 C         7.42087   3.173886   3.846793 C.ar        1 UNL1     -0.0516
     24 O         9.271301   6.336258   3.995282 O.3        1 UNL1     -0.5068
     25 O         7.450112   0.788686   7.369555 O.2        1 UNL1     -0.2917
     26 O         4.772572   1.022087   7.581291 O.3        1 UNL1     -0.5058
     27 O         2.518706   0.117156   0.438551 O.3        1 UNL1     -0.3648
     28 O         -0.421358   -1.974105   0.369042 O.3        1 UNL1     -0.3841
     29 O         -0.500054   1.120056   2.177583 O.3        1 UNL1     -0.3863
     30 O         -0.214492   -2.333367   3.399235 O.3        1 UNL1     -0.3829
     31 H         1.977855   -1.779896   0.144168 H        1 UNL1     0.0937
     32 H         0.0   0.0   0.0 H        1 UNL1     0.0671
     33 H         -1.494354   -0.635838   2.06829 H        1 UNL1     0.0649
     34 H         -0.164367   -0.458304   4.232039 H        1 UNL1     0.0683
     35 H         2.042137   -1.523459   4.126995 H        1 UNL1     0.1085
     36 H         2.633367   0.851397   6.20217 H        1 UNL1     0.0691
     37 H         4.599042   0.214396   2.412639 H        1 UNL1     0.0691
     38 H         8.377937   -0.982717   5.251564 H        1 UNL1     0.0385
     39 H         9.355824   0.404835   5.768265 H        1 UNL1     0.0385
     40 H         8.999415   0.30002   3.272001 H        1 UNL1     0.0789
     41 H         10.635673   2.053671   3.916899 H        1 UNL1     0.0623
     42 H         11.065888   4.477576   3.959115 H        1 UNL1     0.0654
     43 H         6.839854   5.240988   3.874153 H        1 UNL1     0.0654
     44 H         6.384258   2.855178   3.794775 H        1 UNL1     0.0623
     45 H         8.54272   6.786441   4.45269 H        1 UNL1     0.2921
     46 H         5.109149   1.915303   7.755341 H        1 UNL1     0.2922
     47 H         3.258213   -0.183194   -0.108057 H        1 UNL1     0.2126
     48 H         -0.793536   -2.377192   1.176963 H        1 UNL1     0.2101
     49 H         -0.95014   1.384117   2.995806 H        1 UNL1     0.2100
     50 H         0.018714   -2.667313   4.290194 H        1 UNL1     0.2102
@<TRIPOS>BOND
     1     1     2    1
     2     1     6    1
     3     2     3    1
     4     3     4    1
     5     3    29    1
     6     3    33    1
     7     4     5    1
     8     5     6    1
     9     5     7    1
    10     5    35    1
    11     7     8    1
    12     8     9   ar
    13     8    13   ar
    14     9    10   ar
    15     9    36    1
    16    10    11   ar
    17    10    26    1
    18    11    12   ar
    19    11    14    1
    20    12    13   ar
    21    12    17    1
    22    13    37    1
    23    14    15    1
    24    14    25    2
    25    15    16    1
    26    15    38    1
    27    15    39    1
    28    16    17    1
    29    16    18    1
    30    16    40    1
    31    18    19   ar
    32    18    23   ar
    33    19    20   ar
    34    19    41    1
    35    20    21   ar
    36    20    42    1
    37    21    22   ar
    38    21    24    1
    39    22    23   ar
    40    22    43    1
    41    23    44    1
    42    24    45    1
    43    26    46    1
    44    27    47    1
    45    28    48    1
    46    29    49    1
    47    30    50    1
    48     1    31    1
    49     1    27    1
    50     2    32    1
    51     2    28    1
    52     4    34    1
    53     4    30    1
