@<TRIPOS>MOLECULE
*****
 50 53 0 0 0
SMALL
GASTEIGER

@<TRIPOS>ATOM
     1 C         -0.335822   -1.332546   1.697748 C.3        1 UNL1     0.1889
     2 C         -0.460349   -0.977183   0.19171 C.3        1 UNL1     0.1342
     3 C         -1.898711   -0.968075   -0.348195 C.3        1 UNL1     0.1174
     4 C         -2.784809   -2.031302   0.305637 C.3        1 UNL1     0.1456
     5 C         -2.640269   -2.059058   1.838184 C.3        1 UNL1     0.2326
     6 O         -1.276354   -2.27359   2.193965 O.3        1 UNL1     -0.3076
     7 O         -3.22177   -0.915016   2.4896 O.3        1 UNL1     -0.4605
     8 C         -3.736965   -1.13449   3.754485 C.ar        1 UNL1     0.1310
     9 C         -4.551859   -2.21066   4.122052 C.ar        1 UNL1     0.0226
     10 C         -5.010767   -2.354992   5.436766 C.ar        1 UNL1     0.1343
     11 C         -4.645986   -1.438646   6.422203 C.ar        1 UNL1     0.1007
     12 C         -3.866379   -0.337491   6.058262 C.ar        1 UNL1     0.1389
     13 C         -3.407258   -0.19116   4.735679 C.ar        1 UNL1     0.0229
     14 C         -5.033093   -1.588417   7.844128 C.2        1 UNL1     0.1740
     15 C         -4.371643   -0.640025   8.800468 C.3        1 UNL1     0.0520
     16 C         -4.303334   0.733442   8.147107 C.3        1 UNL1     0.1322
     17 O         -3.538652   0.681292   6.922521 O.3        1 UNL1     -0.4828
     18 C         -5.664053   1.42199   8.016462 C.ar        1 UNL1     -0.0067
     19 C         -6.038869   1.986082   6.779722 C.ar        1 UNL1     -0.0516
     20 C         -7.255527   2.664196   6.638776 C.ar        1 UNL1     -0.0198
     21 C         -8.100889   2.791135   7.72647 C.ar        1 UNL1     0.1169
     22 C         -7.77476   2.217537   8.948543 C.ar        1 UNL1     -0.0198
     23 C         -6.566574   1.523455   9.084899 C.ar        1 UNL1     -0.0516
     24 O         -9.259923   3.490945   7.561222 O.3        1 UNL1     -0.5068
     25 O         -5.781192   -2.473177   8.251601 O.2        1 UNL1     -0.2917
     26 O         -5.803272   -3.426285   5.729771 O.3        1 UNL1     -0.5058
     27 O         -0.237939   -0.195589   2.540681 O.3        1 UNL1     -0.3648
     28 O         0.276737   -1.951931   -0.569391 O.3        1 UNL1     -0.3841
     29 O         -2.460538   0.343682   -0.272181 O.3        1 UNL1     -0.3863
     30 O         -2.430829   -3.330041   -0.217495 O.3        1 UNL1     -0.3829
     31 H         0.62585   -1.842686   1.820315 H        1 UNL1     0.0937
     32 H         0.0   0.0   0.0 H        1 UNL1     0.0671
     33 H         -1.855963   -1.205488   -1.420355 H        1 UNL1     0.0649
     34 H         -3.834267   -1.855703   0.044476 H        1 UNL1     0.0683
     35 H         -3.193649   -2.957195   2.139846 H        1 UNL1     0.1085
     36 H         -4.824552   -2.986812   3.415407 H        1 UNL1     0.0691
     37 H         -2.802576   0.675613   4.477692 H        1 UNL1     0.0691
     38 H         -3.369129   -1.027539   9.011003 H        1 UNL1     0.0385
     39 H         -4.936395   -0.624511   9.738866 H        1 UNL1     0.0385
     40 H         -3.713559   1.379117   8.811779 H        1 UNL1     0.0789
     41 H         -5.388663   1.908001   5.913242 H        1 UNL1     0.0623
     42 H         -7.527851   3.105106   5.68303 H        1 UNL1     0.0654
     43 H         -8.436316   2.297985   9.802816 H        1 UNL1     0.0654
     44 H         -6.348724   1.078879   10.0512 H        1 UNL1     0.0623
     45 H         -9.035392   4.39968   7.30334 H        1 UNL1     0.2921
     46 H         -5.401317   -3.939019   6.448763 H        1 UNL1     0.2922
     47 H         0.504619   0.360948   2.26731 H        1 UNL1     0.2126
     48 H         1.208128   -1.883771   -0.283739 H        1 UNL1     0.2101
     49 H         -2.020485   0.928597   -0.90938 H        1 UNL1     0.2100
     50 H         -2.659598   -3.344016   -1.169956 H        1 UNL1     0.2102
@<TRIPOS>BOND
     1     1     2    1
     2     1     6    1
     3     2     3    1
     4     3     4    1
     5     3    29    1
     6     3    33    1
     7     4     5    1
     8     5     6    1
     9     5     7    1
    10     5    35    1
    11     7     8    1
    12     8     9   ar
    13     8    13   ar
    14     9    10   ar
    15     9    36    1
    16    10    11   ar
    17    10    26    1
    18    11    12   ar
    19    11    14    1
    20    12    13   ar
    21    12    17    1
    22    13    37    1
    23    14    15    1
    24    14    25    2
    25    15    16    1
    26    15    38    1
    27    15    39    1
    28    16    17    1
    29    16    18    1
    30    16    40    1
    31    18    19   ar
    32    18    23   ar
    33    19    20   ar
    34    19    41    1
    35    20    21   ar
    36    20    42    1
    37    21    22   ar
    38    21    24    1
    39    22    23   ar
    40    22    43    1
    41    23    44    1
    42    24    45    1
    43    26    46    1
    44    27    47    1
    45    28    48    1
    46    29    49    1
    47    30    50    1
    48     1    31    1
    49     1    27    1
    50     2    32    1
    51     2    28    1
    52     4    34    1
    53     4    30    1
