@<TRIPOS>MOLECULE
*****
 50 53 0 0 0
SMALL
GASTEIGER

@<TRIPOS>ATOM
     1 C         -0.398934   -1.359098   1.662681 C.3        1 UNL1     0.1889
     2 C         -0.496746   -0.964227   0.164532 C.3        1 UNL1     0.1342
     3 C         -1.928809   -0.890725   -0.387064 C.3        1 UNL1     0.1174
     4 C         -2.858362   -1.936455   0.233819 C.3        1 UNL1     0.1456
     5 C         -2.729083   -2.005364   1.766432 C.3        1 UNL1     0.2326
     6 O         -1.377058   -2.277101   2.12845 O.3        1 UNL1     -0.3076
     7 O         -3.275307   -0.856758   2.439979 O.3        1 UNL1     -0.4605
     8 C         -3.809692   -1.087199   3.694912 C.ar        1 UNL1     0.1310
     9 C         -4.665907   -2.1417   4.029912 C.ar        1 UNL1     0.0226
     10 C         -5.141818   -2.300261   5.336919 C.ar        1 UNL1     0.1343
     11 C         -4.753634   -1.421015   6.34691 C.ar        1 UNL1     0.1007
     12 C         -3.931824   -0.340368   6.015832 C.ar        1 UNL1     0.1389
     13 C         -3.455555   -0.179632   4.701008 C.ar        1 UNL1     0.0229
     14 C         -5.158979   -1.59011   7.761567 C.2        1 UNL1     0.1740
     15 C         -4.472914   -0.688833   8.745723 C.3        1 UNL1     0.0520
     16 C         -4.349504   0.69625   8.125825 C.3        1 UNL1     0.1322
     17 O         -3.575886   0.645399   6.906809 O.3        1 UNL1     -0.4828
     18 C         -5.683469   1.436165   8.000177 C.ar        1 UNL1     -0.0067
     19 C         -6.025177   2.044644   6.774942 C.ar        1 UNL1     -0.0516
     20 C         -7.215444   2.769241   6.640087 C.ar        1 UNL1     -0.0198
     21 C         -8.066977   2.898596   7.722671 C.ar        1 UNL1     0.1169
     22 C         -7.774107   2.282736   8.93254 C.ar        1 UNL1     -0.0198
     23 C         -6.592827   1.542606   9.062313 C.ar        1 UNL1     -0.0516
     24 O         -9.198636   3.643425   7.564628 O.3        1 UNL1     -0.5068
     25 O         -5.941969   -2.456716   8.141576 O.2        1 UNL1     -0.2917
     26 O         -5.974794   -3.348945   5.597685 O.3        1 UNL1     -0.5058
     27 O         -0.268261   -0.246501   2.53322 O.3        1 UNL1     -0.3648
     28 O         0.212024   -1.946715   -0.61333 O.3        1 UNL1     -0.3841
     29 O         -2.444055   0.438242   -0.284581 O.3        1 UNL1     -0.3863
     30 O         -2.546222   -3.234443   -0.317075 O.3        1 UNL1     -0.3829
     31 H         0.542709   -1.906229   1.781146 H        1 UNL1     0.0937
     32 H         0.0   0.0   0.0 H        1 UNL1     0.0671
     33 H         -1.884665   -1.104284   -1.464173 H        1 UNL1     0.0649
     34 H         -3.898411   -1.717146   -0.031894 H        1 UNL1     0.0683
     35 H         -3.316987   -2.889853   2.04198 H        1 UNL1     0.1085
     36 H         -4.959631   -2.890739   3.302734 H        1 UNL1     0.0691
     37 H         -2.81791   0.670652   4.468805 H        1 UNL1     0.0691
     38 H         -3.486885   -1.116984   8.95539 H        1 UNL1     0.0385
     39 H         -5.045403   -0.675054   9.679449 H        1 UNL1     0.0385
     40 H         -3.743192   1.304515   8.810601 H        1 UNL1     0.0789
     41 H         -5.36922   1.965448   5.912909 H        1 UNL1     0.0623
     42 H         -7.462016   3.243829   5.693525 H        1 UNL1     0.0654
     43 H         -8.441196   2.365014   9.782324 H        1 UNL1     0.0654
     44 H         -6.40093   1.066038   10.018819 H        1 UNL1     0.0623
     45 H         -8.939116   4.551836   7.340674 H        1 UNL1     0.2921
     46 H         -5.598772   -3.891765   6.308576 H        1 UNL1     0.2922
     47 H         0.49378   0.291501   2.276887 H        1 UNL1     0.2126
     48 H         1.145869   -1.906929   -0.330342 H        1 UNL1     0.2101
     49 H         -1.983329   1.019956   -0.909989 H        1 UNL1     0.2100
     50 H         -2.771824   -3.219604   -1.270278 H        1 UNL1     0.2102
@<TRIPOS>BOND
     1     1     2    1
     2     1     6    1
     3     2     3    1
     4     3     4    1
     5     3    29    1
     6     3    33    1
     7     4     5    1
     8     5     6    1
     9     5     7    1
    10     5    35    1
    11     7     8    1
    12     8     9   ar
    13     8    13   ar
    14     9    10   ar
    15     9    36    1
    16    10    11   ar
    17    10    26    1
    18    11    12   ar
    19    11    14    1
    20    12    13   ar
    21    12    17    1
    22    13    37    1
    23    14    15    1
    24    14    25    2
    25    15    16    1
    26    15    38    1
    27    15    39    1
    28    16    17    1
    29    16    18    1
    30    16    40    1
    31    18    19   ar
    32    18    23   ar
    33    19    20   ar
    34    19    41    1
    35    20    21   ar
    36    20    42    1
    37    21    22   ar
    38    21    24    1
    39    22    23   ar
    40    22    43    1
    41    23    44    1
    42    24    45    1
    43    26    46    1
    44    27    47    1
    45    28    48    1
    46    29    49    1
    47    30    50    1
    48     1    31    1
    49     1    27    1
    50     2    32    1
    51     2    28    1
    52     4    34    1
    53     4    30    1
