@<TRIPOS>MOLECULE
*****
 50 53 0 0 0
SMALL
GASTEIGER

@<TRIPOS>ATOM
     1 C         0.043704   -1.767807   1.282089 C.3        1 UNL1     0.1889
     2 C         -0.387334   -1.026349   -0.011892 C.3        1 UNL1     0.1342
     3 C         -1.90412   -0.986762   -0.253259 C.3        1 UNL1     0.1174
     4 C         -2.614306   -2.256136   0.22365 C.3        1 UNL1     0.1456
     5 C         -2.166929   -2.689144   1.631742 C.3        1 UNL1     0.2326
     6 O         -0.754367   -2.881457   1.655267 O.3        1 UNL1     -0.3076
     7 O         -2.636762   -1.817192   2.675905 O.3        1 UNL1     -0.4605
     8 C         -3.918574   -2.058797   3.136461 C.ar        1 UNL1     0.1310
     9 C         -4.910242   -1.088989   3.319128 C.ar        1 UNL1     0.0226
     10 C         -6.187267   -1.436691   3.775431 C.ar        1 UNL1     0.1343
     11 C         -6.511173   -2.76716   4.037686 C.ar        1 UNL1     0.1007
     12 C         -5.517012   -3.739267   3.898275 C.ar        1 UNL1     0.1389
     13 C         -4.232265   -3.389051   3.441981 C.ar        1 UNL1     0.0229
     14 C         -7.868756   -3.200978   4.441325 C.2        1 UNL1     0.1740
     15 C         -8.096564   -4.683927   4.463993 C.3        1 UNL1     0.0520
     16 C         -6.856185   -5.353168   5.039782 C.3        1 UNL1     0.1322
     17 O         -5.694568   -5.061967   4.231749 O.3        1 UNL1     -0.4828
     18 C         -6.663825   -5.108975   6.538479 C.ar        1 UNL1     -0.0067
     19 C         -7.782752   -5.147467   7.395646 C.ar        1 UNL1     -0.0516
     20 C         -7.649076   -4.881901   8.763699 C.ar        1 UNL1     -0.0198
     21 C         -6.405896   -4.570068   9.284362 C.ar        1 UNL1     0.1169
     22 C         -5.279825   -4.557188   8.471566 C.ar        1 UNL1     -0.0198
     23 C         -5.410228   -4.840819   7.106793 C.ar        1 UNL1     -0.0516
     24 O         -6.320652   -4.280145   10.614429 O.3        1 UNL1     -0.5068
     25 O         -8.788427   -2.419479   4.669249 O.2        1 UNL1     -0.2917
     26 O         -7.108809   -0.443051   3.933626 O.3        1 UNL1     -0.5058
     27 O         0.277731   -0.899899   2.379702 O.3        1 UNL1     -0.3648
     28 O         0.208669   -1.693488   -1.139905 O.3        1 UNL1     -0.3841
     29 O         -2.473587   0.204541   0.293217 O.3        1 UNL1     -0.3863
     30 O         -2.337793   -3.329805   -0.701804 O.3        1 UNL1     -0.3829
     31 H         1.023499   -2.212444   1.076228 H        1 UNL1     0.0937
     32 H         0.0   0.0   0.0 H        1 UNL1     0.0671
     33 H         -2.069465   -0.918398   -1.33756 H        1 UNL1     0.0649
     34 H         -3.698962   -2.101505   0.220385 H        1 UNL1     0.0683
     35 H         -2.625575   -3.677242   1.762832 H        1 UNL1     0.1085
     36 H         -4.738198   -0.045367   3.079599 H        1 UNL1     0.0691
     37 H         -3.475677   -4.164456   3.342916 H        1 UNL1     0.0691
     38 H         -8.277189   -5.00704   3.433217 H        1 UNL1     0.0385
     39 H         -8.994668   -4.90015   5.052581 H        1 UNL1     0.0385
     40 H         -6.996699   -6.437773   4.937766 H        1 UNL1     0.0789
     41 H         -8.770856   -5.380751   7.009797 H        1 UNL1     0.0623
     42 H         -8.521407   -4.903016   9.412238 H        1 UNL1     0.0654
     43 H         -4.299127   -4.328993   8.871652 H        1 UNL1     0.0654
     44 H         -4.507718   -4.832171   6.503265 H        1 UNL1     0.0623
     45 H         -5.400901   -4.045682   10.818883 H        1 UNL1     0.2921
     46 H         -6.830289   0.339361   3.431958 H        1 UNL1     0.2922
     47 H         0.828399   -1.339428   3.042603 H        1 UNL1     0.2126
     48 H         -0.411631   -1.588301   -1.886829 H        1 UNL1     0.2101
     49 H         -3.397641   0.289065   0.009009 H        1 UNL1     0.2100
     50 H         -1.45484   -3.169324   -1.094681 H        1 UNL1     0.2102
@<TRIPOS>BOND
     1     1     2    1
     2     1     6    1
     3     2     3    1
     4     3     4    1
     5     3    29    1
     6     3    33    1
     7     4     5    1
     8     5     6    1
     9     5     7    1
    10     5    35    1
    11     7     8    1
    12     8     9   ar
    13     8    13   ar
    14     9    10   ar
    15     9    36    1
    16    10    11   ar
    17    10    26    1
    18    11    12   ar
    19    11    14    1
    20    12    13   ar
    21    12    17    1
    22    13    37    1
    23    14    15    1
    24    14    25    2
    25    15    16    1
    26    15    38    1
    27    15    39    1
    28    16    17    1
    29    16    18    1
    30    16    40    1
    31    18    19   ar
    32    18    23   ar
    33    19    20   ar
    34    19    41    1
    35    20    21   ar
    36    20    42    1
    37    21    22   ar
    38    21    24    1
    39    22    23   ar
    40    22    43    1
    41    23    44    1
    42    24    45    1
    43    26    46    1
    44    27    47    1
    45    28    48    1
    46    29    49    1
    47    30    50    1
    48     1    31    1
    49     1    27    1
    50     2    32    1
    51     2    28    1
    52     4    34    1
    53     4    30    1
