@<TRIPOS>MOLECULE
*****
 50 53 0 0 0
SMALL
GASTEIGER

@<TRIPOS>ATOM
     1 C         -0.337299   -1.333794   1.696475 C.3        1 UNL1     0.1889
     2 C         -0.465673   -0.974669   0.191653 C.3        1 UNL1     0.1342
     3 C         -1.906114   -0.955507   -0.342413 C.3        1 UNL1     0.1174
     4 C         -2.796199   -2.014479   0.312909 C.3        1 UNL1     0.1456
     5 C         -2.645657   -2.046182   1.844802 C.3        1 UNL1     0.2326
     6 O         -1.281687   -2.269933   2.194643 O.3        1 UNL1     -0.3076
     7 O         -3.217365   -0.899828   2.500808 O.3        1 UNL1     -0.4605
     8 C         -3.728818   -1.118595   3.767333 C.ar        1 UNL1     0.1310
     9 C         -4.548936   -2.190384   4.136079 C.ar        1 UNL1     0.0226
     10 C         -5.003433   -2.334461   5.452353 C.ar        1 UNL1     0.1343
     11 C         -4.62896   -1.422371   6.438103 C.ar        1 UNL1     0.1007
     12 C         -3.843958   -0.325383   6.073174 C.ar        1 UNL1     0.1389
     13 C         -3.389266   -0.179294   4.749035 C.ar        1 UNL1     0.0229
     14 C         -5.011261   -1.572548   7.861285 C.2        1 UNL1     0.1740
     15 C         -4.340044   -0.630206   8.816801 C.3        1 UNL1     0.0520
     16 C         -4.265785   0.744103   8.165866 C.3        1 UNL1     0.1322
     17 O         -3.506387   0.689614   6.938097 O.3        1 UNL1     -0.4828
     18 C         -5.622688   1.441393   8.042076 C.ar        1 UNL1     -0.0067
     19 C         -5.997766   2.012717   6.808739 C.ar        1 UNL1     -0.0516
     20 C         -7.210706   2.698742   6.674174 C.ar        1 UNL1     -0.0198
     21 C         -8.052034   2.826412   7.764905 C.ar        1 UNL1     0.1169
     22 C         -7.725743   2.245936   8.983683 C.ar        1 UNL1     -0.0198
     23 C         -6.521385   1.544013   9.113621 C.ar        1 UNL1     -0.0516
     24 O         -9.207292   3.533882   7.605952 O.3        1 UNL1     -0.5068
     25 O         -5.763227   -2.453427   8.270043 O.2        1 UNL1     -0.2917
     26 O         -5.801432   -3.401365   5.746458 O.3        1 UNL1     -0.5058
     27 O         -0.228913   -0.199149   2.541234 O.3        1 UNL1     -0.3648
     28 O         0.262231   -1.952486   -0.574335 O.3        1 UNL1     -0.3841
     29 O         -2.459418   0.359578   -0.261554 O.3        1 UNL1     -0.3863
     30 O         -2.452457   -3.31436   -0.214197 O.3        1 UNL1     -0.3829
     31 H         0.621652   -1.850172   1.81415 H        1 UNL1     0.0937
     32 H         0.0   0.0   0.0 H        1 UNL1     0.0671
     33 H         -1.869174   -1.191051   -1.415201 H        1 UNL1     0.0649
     34 H         -3.845582   -1.831812   0.056339 H        1 UNL1     0.0683
     35 H         -3.203421   -2.941444   2.146936 H        1 UNL1     0.1085
     36 H         -4.829322   -2.963413   3.429022 H        1 UNL1     0.0691
     37 H         -2.780223   0.684198   4.490305 H        1 UNL1     0.0691
     38 H         -3.339131   -1.024389   9.02252 H        1 UNL1     0.0385
     39 H         -4.900901   -0.613031   9.757505 H        1 UNL1     0.0385
     40 H         -3.66931   1.384762   8.829413 H        1 UNL1     0.0789
     41 H         -5.350634   1.934193   5.940002 H        1 UNL1     0.0623
     42 H         -7.483202   3.145136   5.721026 H        1 UNL1     0.0654
     43 H         -8.384247   2.326945   9.840258 H        1 UNL1     0.0654
     44 H         -6.303352   1.094241   10.077473 H        1 UNL1     0.0623
     45 H         -8.977873   4.443747   7.356494 H        1 UNL1     0.2921
     46 H         -5.400484   -3.917251   6.463755 H        1 UNL1     0.2922
     47 H         0.513468   0.355419   2.263412 H        1 UNL1     0.2126
     48 H         1.197961   -1.878992   -0.304628 H        1 UNL1     0.2101
     49 H         -2.018409   0.942957   -0.8995 H        1 UNL1     0.2100
     50 H         -2.690372   -3.326929   -1.164434 H        1 UNL1     0.2102
@<TRIPOS>BOND
     1     1     2    1
     2     1     6    1
     3     2     3    1
     4     3     4    1
     5     3    29    1
     6     3    33    1
     7     4     5    1
     8     5     6    1
     9     5     7    1
    10     5    35    1
    11     7     8    1
    12     8     9   ar
    13     8    13   ar
    14     9    10   ar
    15     9    36    1
    16    10    11   ar
    17    10    26    1
    18    11    12   ar
    19    11    14    1
    20    12    13   ar
    21    12    17    1
    22    13    37    1
    23    14    15    1
    24    14    25    2
    25    15    16    1
    26    15    38    1
    27    15    39    1
    28    16    17    1
    29    16    18    1
    30    16    40    1
    31    18    19   ar
    32    18    23   ar
    33    19    20   ar
    34    19    41    1
    35    20    21   ar
    36    20    42    1
    37    21    22   ar
    38    21    24    1
    39    22    23   ar
    40    22    43    1
    41    23    44    1
    42    24    45    1
    43    26    46    1
    44    27    47    1
    45    28    48    1
    46    29    49    1
    47    30    50    1
    48     1    31    1
    49     1    27    1
    50     2    32    1
    51     2    28    1
    52     4    34    1
    53     4    30    1
