@<TRIPOS>MOLECULE
*****
 50 53 0 0 0
SMALL
GASTEIGER

@<TRIPOS>ATOM
     1 C         0.745815   1.881189   0.822006 C.3        1 UNL1     0.1889
     2 C         0.90574   0.615816   -0.062978 C.3        1 UNL1     0.1342
     3 C         2.126923   -0.253011   0.27513 C.3        1 UNL1     0.1174
     4 C         3.334057   0.571121   0.729827 C.3        1 UNL1     0.1456
     5 C         2.959441   1.641671   1.770956 C.3        1 UNL1     0.2326
     6 O         1.951798   2.501332   1.243219 O.3        1 UNL1     -0.3076
     7 O         2.619661   1.095182   3.058287 O.3        1 UNL1     -0.4605
     8 C         3.683914   0.793938   3.889037 C.ar        1 UNL1     0.1310
     9 C         3.8226   1.218818   5.214761 C.ar        1 UNL1     0.0226
     10 C         4.93251   0.845582   5.982027 C.ar        1 UNL1     0.1343
     11 C         5.919889   0.017977   5.449118 C.ar        1 UNL1     0.1007
     12 C         5.812998   -0.379064   4.113559 C.ar        1 UNL1     0.1389
     13 C         4.698218   -0.001472   3.341471 C.ar        1 UNL1     0.0229
     14 C         7.070692   -0.475344   6.240598 C.2        1 UNL1     0.1740
     15 C         7.909298   -1.529433   5.579399 C.3        1 UNL1     0.0520
     16 C         8.066707   -1.167655   4.108924 C.3        1 UNL1     0.1322
     17 O         6.779625   -1.103907   3.45591 O.3        1 UNL1     -0.4828
     18 C         8.962115   0.049767   3.866331 C.ar        1 UNL1     -0.0067
     19 C         10.363402   -0.103888   3.897926 C.ar        1 UNL1     -0.0516
     20 C         11.210807   0.997347   3.727199 C.ar        1 UNL1     -0.0198
     21 C         10.670449   2.255798   3.531898 C.ar        1 UNL1     0.1169
     22 C         9.29481   2.433662   3.462463 C.ar        1 UNL1     -0.0198
     23 C         8.447409   1.329679   3.614743 C.ar        1 UNL1     -0.0516
     24 O         11.526465   3.310368   3.407325 O.3        1 UNL1     -0.5068
     25 O         7.299172   -0.121467   7.394311 O.2        1 UNL1     -0.2917
     26 O         5.008397   1.294506   7.268221 O.3        1 UNL1     -0.5058
     27 O         -0.157615   1.705476   1.901694 O.3        1 UNL1     -0.3648
     28 O         1.042948   1.03258   -1.434178 O.3        1 UNL1     -0.3841
     29 O         1.776534   -1.280475   1.204473 O.3        1 UNL1     -0.3863
     30 O         3.92084   1.224195   -0.416851 O.3        1 UNL1     -0.3829
     31 H         0.271302   2.64371   0.194728 H        1 UNL1     0.0937
     32 H         0.0   -0.0   0.0 H        1 UNL1     0.0671
     33 H         2.428331   -0.779062   -0.641464 H        1 UNL1     0.0649
     34 H         4.100861   -0.089163   1.149871 H        1 UNL1     0.0683
     35 H         3.871416   2.243386   1.871547 H        1 UNL1     0.1085
     36 H         3.06213   1.817325   5.704246 H        1 UNL1     0.0691
     37 H         4.639186   -0.322771   2.303793 H        1 UNL1     0.0691
     38 H         7.391076   -2.487079   5.697241 H        1 UNL1     0.0385
     39 H         8.873482   -1.596587   6.094782 H        1 UNL1     0.0385
     40 H         8.580272   -2.007737   3.622064 H        1 UNL1     0.0789
     41 H         10.812149   -1.079792   4.058825 H        1 UNL1     0.0623
     42 H         12.289592   0.867847   3.765491 H        1 UNL1     0.0654
     43 H         8.861285   3.412388   3.294945 H        1 UNL1     0.0654
     44 H         7.377995   1.503556   3.544278 H        1 UNL1     0.0623
     45 H         12.002514   3.419743   4.24645 H        1 UNL1     0.2921
     46 H         4.983711   2.264437   7.274327 H        1 UNL1     0.2922
     47 H         -0.18364   2.502363   2.449557 H        1 UNL1     0.2126
     48 H         0.646598   1.922921   -1.496887 H        1 UNL1     0.2101
     49 H         0.951997   -1.046547   1.659677 H        1 UNL1     0.2100
     50 H         4.876463   1.008971   -0.430148 H        1 UNL1     0.2102
@<TRIPOS>BOND
     1     1     2    1
     2     1     6    1
     3     2     3    1
     4     3     4    1
     5     3    29    1
     6     3    33    1
     7     4     5    1
     8     5     6    1
     9     5     7    1
    10     5    35    1
    11     7     8    1
    12     8     9   ar
    13     8    13   ar
    14     9    10   ar
    15     9    36    1
    16    10    11   ar
    17    10    26    1
    18    11    12   ar
    19    11    14    1
    20    12    13   ar
    21    12    17    1
    22    13    37    1
    23    14    15    1
    24    14    25    2
    25    15    16    1
    26    15    38    1
    27    15    39    1
    28    16    17    1
    29    16    18    1
    30    16    40    1
    31    18    19   ar
    32    18    23   ar
    33    19    20   ar
    34    19    41    1
    35    20    21   ar
    36    20    42    1
    37    21    22   ar
    38    21    24    1
    39    22    23   ar
    40    22    43    1
    41    23    44    1
    42    24    45    1
    43    26    46    1
    44    27    47    1
    45    28    48    1
    46    29    49    1
    47    30    50    1
    48     1    31    1
    49     1    27    1
    50     2    32    1
    51     2    28    1
    52     4    34    1
    53     4    30    1
