@<TRIPOS>MOLECULE
*****
 50 53 0 0 0
SMALL
GASTEIGER

@<TRIPOS>ATOM
     1 C         -0.565113   -1.412599   1.567168 C.3        1 UNL1     0.1889
     2 C         -0.577411   -0.928244   0.092316 C.3        1 UNL1     0.1342
     3 C         -1.978383   -0.707778   -0.498561 C.3        1 UNL1     0.1174
     4 C         -3.009804   -1.707307   0.030807 C.3        1 UNL1     0.1456
     5 C         -2.941481   -1.871772   1.560071 C.3        1 UNL1     0.2326
     6 O         -1.629199   -2.272428   1.947704 O.3        1 UNL1     -0.3076
     7 O         -3.418476   -0.721812   2.282143 O.3        1 UNL1     -0.4605
     8 C         -4.014168   -0.977518   3.504147 C.ar        1 UNL1     0.1310
     9 C         -4.96297   -1.975823   3.750041 C.ar        1 UNL1     0.0226
     10 C         -5.496564   -2.167662   5.030032 C.ar        1 UNL1     0.1343
     11 C         -5.076197   -1.380567   6.101299 C.ar        1 UNL1     0.1007
     12 C         -4.15973   -0.353661   5.85977 C.ar        1 UNL1     0.1389
     13 C         -3.625325   -0.159252   4.572118 C.ar        1 UNL1     0.0229
     14 C         -5.544194   -1.59463   7.490295 C.2        1 UNL1     0.1740
     15 C         -4.824401   -0.808425   8.546387 C.3        1 UNL1     0.0520
     16 C         -4.569109   0.594381   8.01261 C.3        1 UNL1     0.1322
     17 O         -3.758747   0.54869   6.817497 O.3        1 UNL1     -0.4828
     18 C         -5.83466   1.446297   7.888738 C.ar        1 UNL1     -0.0067
     19 C         -6.082735   2.147875   6.691048 C.ar        1 UNL1     -0.0516
     20 C         -7.206023   2.97336   6.561589 C.ar        1 UNL1     -0.0198
     21 C         -8.082868   3.111115   7.622718 C.ar        1 UNL1     0.1169
     22 C         -7.883481   2.407025   8.803116 C.ar        1 UNL1     -0.0198
     23 C         -6.770198   1.567098   8.926318 C.ar        1 UNL1     -0.0516
     24 O         -9.145331   3.953253   7.473135 O.3        1 UNL1     -0.5068
     25 O         -6.406727   -2.414425   7.794364 O.2        1 UNL1     -0.2917
     26 O         -6.41909   -3.157935   5.202922 O.3        1 UNL1     -0.5058
     27 O         -0.37772   -0.364557   2.504867 O.3        1 UNL1     -0.3648
     28 O         0.078459   -1.92032   -0.719057 O.3        1 UNL1     -0.3841
     29 O         -2.389691   0.650949   -0.334794 O.3        1 UNL1     -0.3863
     30 O         -2.782277   -2.993694   -0.584928 O.3        1 UNL1     -0.3829
     31 H         0.325196   -2.040328   1.682865 H        1 UNL1     0.0937
     32 H         0.0   0.0   0.0 H        1 UNL1     0.0671
     33 H         -1.912741   -0.863895   -1.584397 H        1 UNL1     0.0649
     34 H         -4.018921   -1.389587   -0.254039 H        1 UNL1     0.0683
     35 H         -3.607346   -2.719428   1.764965 H        1 UNL1     0.1085
     36 H         -5.289033   -2.65679   2.971525 H        1 UNL1     0.0691
     37 H         -2.914183   0.647902   4.41003 H        1 UNL1     0.0691
     38 H         -3.88369   -1.326449   8.761423 H        1 UNL1     0.0385
     39 H         -5.427113   -0.80011   9.460962 H        1 UNL1     0.0385
     40 H         -3.941319   1.112172   8.750372 H        1 UNL1     0.0789
     41 H         -5.404647   2.063673   5.846798 H        1 UNL1     0.0623
     42 H         -7.379967   3.518432   5.637115 H        1 UNL1     0.0654
     43 H         -8.571974   2.495883   9.634976 H        1 UNL1     0.0654
     44 H         -6.651235   1.023952   9.858887 H        1 UNL1     0.0623
     45 H         -8.806557   4.848072   7.308068 H        1 UNL1     0.2921
     46 H         -6.11316   -3.768319   5.892305 H        1 UNL1     0.2922
     47 H         0.434105   0.12219   2.305174 H        1 UNL1     0.2126
     48 H         1.001756   -1.972523   -0.405161 H        1 UNL1     0.2101
     49 H         -1.856419   1.228106   -0.904272 H        1 UNL1     0.2100
     50 H         -2.971641   -2.907465   -1.542226 H        1 UNL1     0.2102
@<TRIPOS>BOND
     1     1     2    1
     2     1     6    1
     3     2     3    1
     4     3     4    1
     5     3    29    1
     6     3    33    1
     7     4     5    1
     8     5     6    1
     9     5     7    1
    10     5    35    1
    11     7     8    1
    12     8     9   ar
    13     8    13   ar
    14     9    10   ar
    15     9    36    1
    16    10    11   ar
    17    10    26    1
    18    11    12   ar
    19    11    14    1
    20    12    13   ar
    21    12    17    1
    22    13    37    1
    23    14    15    1
    24    14    25    2
    25    15    16    1
    26    15    38    1
    27    15    39    1
    28    16    17    1
    29    16    18    1
    30    16    40    1
    31    18    19   ar
    32    18    23   ar
    33    19    20   ar
    34    19    41    1
    35    20    21   ar
    36    20    42    1
    37    21    22   ar
    38    21    24    1
    39    22    23   ar
    40    22    43    1
    41    23    44    1
    42    24    45    1
    43    26    46    1
    44    27    47    1
    45    28    48    1
    46    29    49    1
    47    30    50    1
    48     1    31    1
    49     1    27    1
    50     2    32    1
    51     2    28    1
    52     4    34    1
    53     4    30    1
