@<TRIPOS>MOLECULE
*****
 50 53 0 0 0
SMALL
GASTEIGER

@<TRIPOS>ATOM
     1 C         0.113419   -1.863374   1.133921 C.3        1 UNL1     0.1889
     2 C         0.377688   -1.020114   -0.142408 C.3        1 UNL1     0.1342
     3 C         -0.22354   -1.601715   -1.431101 C.3        1 UNL1     0.1174
     4 C         -0.204039   -3.132095   -1.457091 C.3        1 UNL1     0.1456
     5 C         -0.706043   -3.751213   -0.139879 C.3        1 UNL1     0.2326
     6 O         0.075462   -3.271126   0.951741 O.3        1 UNL1     -0.3076
     7 O         -2.121776   -3.592911   0.064967 O.3        1 UNL1     -0.4605
     8 C         -2.494517   -2.752465   1.098525 C.ar        1 UNL1     0.1310
     9 C         -3.620846   -1.922602   1.102071 C.ar        1 UNL1     0.0226
     10 C         -3.923613   -1.118135   2.207091 C.ar        1 UNL1     0.1343
     11 C         -3.119667   -1.141899   3.345926 C.ar        1 UNL1     0.1007
     12 C         -1.969601   -1.93567   3.338313 C.ar        1 UNL1     0.1389
     13 C         -1.663942   -2.742469   2.226072 C.ar        1 UNL1     0.0229
     14 C         -3.438788   -0.376115   4.573074 C.2        1 UNL1     0.1740
     15 C         -2.594108   -0.690617   5.772721 C.3        1 UNL1     0.0520
     16 C         -1.153725   -0.871286   5.313796 C.3        1 UNL1     0.1322
     17 O         -1.050708   -1.953058   4.361836 O.3        1 UNL1     -0.4828
     18 C         -0.480389   0.429886   4.870744 C.ar        1 UNL1     -0.0067
     19 C         -0.021058   1.338884   5.845912 C.ar        1 UNL1     -0.0516
     20 C         0.556335   2.559165   5.47511 C.ar        1 UNL1     -0.0198
     21 C         0.673125   2.884639   4.135613 C.ar        1 UNL1     0.1169
     22 C         0.260619   1.995717   3.151491 C.ar        1 UNL1     -0.0198
     23 C         -0.299954   0.767401   3.5217 C.ar        1 UNL1     -0.0516
     24 O         1.205995   4.098138   3.813326 O.3        1 UNL1     -0.5068
     25 O         -4.378327   0.410799   4.653805 O.2        1 UNL1     -0.2917
     26 O         -5.036125   -0.330582   2.146578 O.3        1 UNL1     -0.5058
     27 O         -0.99131   -1.403958   1.896349 O.3        1 UNL1     -0.3648
     28 O         1.800645   -0.923901   -0.338984 O.3        1 UNL1     -0.3841
     29 O         -1.523824   -1.06061   -1.673174 O.3        1 UNL1     -0.3863
     30 O         1.146151   -3.584643   -1.697668 O.3        1 UNL1     -0.3829
     31 H         0.976246   -1.713527   1.792064 H        1 UNL1     0.0937
     32 H         0.0   0.0   0.0 H        1 UNL1     0.0671
     33 H         0.395389   -1.261655   -2.273126 H        1 UNL1     0.0649
     34 H         -0.817987   -3.499897   -2.286663 H        1 UNL1     0.0683
     35 H         -0.481399   -4.819794   -0.247342 H        1 UNL1     0.1085
     36 H         -4.315799   -1.900966   0.26979 H        1 UNL1     0.0691
     37 H         -0.762105   -3.350613   2.244626 H        1 UNL1     0.0691
     38 H         -2.984334   -1.610814   6.220481 H        1 UNL1     0.0385
     39 H         -2.696934   0.116776   6.505743 H        1 UNL1     0.0385
     40 H         -0.5776   -1.215112   6.183498 H        1 UNL1     0.0789
     41 H         -0.109689   1.110783   6.904101 H        1 UNL1     0.0623
     42 H         0.89584   3.256856   6.236671 H        1 UNL1     0.0654
     43 H         0.361158   2.234064   2.099354 H        1 UNL1     0.0654
     44 H         -0.601662   0.092629   2.726401 H        1 UNL1     0.0623
     45 H         0.816585   4.39079   2.973427 H        1 UNL1     0.2921
     46 H         -5.567126   -0.458591   2.948491 H        1 UNL1     0.2922
     47 H         -0.774858   -1.414186   2.839165 H        1 UNL1     0.2126
     48 H         2.031908   -1.572994   -1.031031 H        1 UNL1     0.2101
     49 H         -2.052468   -1.095657   -0.860093 H        1 UNL1     0.2100
     50 H         1.653182   -2.834855   -2.072434 H        1 UNL1     0.2102
@<TRIPOS>BOND
     1     1     2    1
     2     1     6    1
     3     2     3    1
     4     3     4    1
     5     3    29    1
     6     3    33    1
     7     4     5    1
     8     5     6    1
     9     5     7    1
    10     5    35    1
    11     7     8    1
    12     8     9   ar
    13     8    13   ar
    14     9    10   ar
    15     9    36    1
    16    10    11   ar
    17    10    26    1
    18    11    12   ar
    19    11    14    1
    20    12    13   ar
    21    12    17    1
    22    13    37    1
    23    14    15    1
    24    14    25    2
    25    15    16    1
    26    15    38    1
    27    15    39    1
    28    16    17    1
    29    16    18    1
    30    16    40    1
    31    18    19   ar
    32    18    23   ar
    33    19    20   ar
    34    19    41    1
    35    20    21   ar
    36    20    42    1
    37    21    22   ar
    38    21    24    1
    39    22    23   ar
    40    22    43    1
    41    23    44    1
    42    24    45    1
    43    26    46    1
    44    27    47    1
    45    28    48    1
    46    29    49    1
    47    30    50    1
    48     1    31    1
    49     1    27    1
    50     2    32    1
    51     2    28    1
    52     4    34    1
    53     4    30    1
