@<TRIPOS>MOLECULE
*****
 50 53 0 0 0
SMALL
GASTEIGER

@<TRIPOS>ATOM
     1 C         1.295296   -0.182686   1.749182 C.3        1 UNL1     0.1889
     2 C         -0.015663   0.282423   1.059978 C.3        1 UNL1     0.1342
     3 C         -0.300443   1.787922   1.173278 C.3        1 UNL1     0.1174
     4 C         0.165003   2.381394   2.505295 C.3        1 UNL1     0.1456
     5 C         1.588304   1.934146   2.885486 C.3        1 UNL1     0.2326
     6 O         1.653447   0.510725   2.935481 O.3        1 UNL1     -0.3076
     7 O         2.612452   2.518838   2.060514 O.3        1 UNL1     -0.4605
     8 C         3.857363   1.91902   2.123303 C.ar        1 UNL1     0.1310
     9 C         5.073819   2.59156   2.282133 C.ar        1 UNL1     0.0226
     10 C         6.284158   1.891461   2.351718 C.ar        1 UNL1     0.1343
     11 C         6.305133   0.49886   2.287987 C.ar        1 UNL1     0.1007
     12 C         5.10091   -0.181386   2.088246 C.ar        1 UNL1     0.1389
     13 C         3.884329   0.522952   2.015658 C.ar        1 UNL1     0.0229
     14 C         7.545988   -0.295655   2.440236 C.2        1 UNL1     0.1740
     15 C         7.355788   -1.778466   2.569259 C.3        1 UNL1     0.0520
     16 C         6.26244   -2.209964   1.601604 C.3        1 UNL1     0.1322
     17 O         5.017566   -1.541971   1.903506 O.3        1 UNL1     -0.4828
     18 C         6.679072   -2.140558   0.13044 C.ar        1 UNL1     -0.0067
     19 C         5.848279   -2.716553   -0.852529 C.ar        1 UNL1     -0.0516
     20 C         6.222406   -2.712364   -2.201594 C.ar        1 UNL1     -0.0198
     21 C         7.425556   -2.14313   -2.578726 C.ar        1 UNL1     0.1169
     22 C         8.249411   -1.538469   -1.638254 C.ar        1 UNL1     -0.0198
     23 C         7.866865   -1.526187   -0.291567 C.ar        1 UNL1     -0.0516
     24 O         7.774131   -2.19139   -3.896514 O.3        1 UNL1     -0.5068
     25 O         8.662548   0.206468   2.538475 O.2        1 UNL1     -0.2917
     26 O         7.435639   2.60692   2.505978 O.3        1 UNL1     -0.5058
     27 O         2.392962   -0.296889   0.857626 O.3        1 UNL1     -0.3648
     28 O         -1.121477   -0.409744   1.6689 O.3        1 UNL1     -0.3841
     29 O         0.221132   2.489122   0.04261 O.3        1 UNL1     -0.3863
     30 O         -0.74457   1.972287   3.549804 O.3        1 UNL1     -0.3829
     31 H         1.120601   -1.207545   2.094473 H        1 UNL1     0.0937
     32 H         0.0   0.0   -0.0 H        1 UNL1     0.0671
     33 H         -1.389472   1.927676   1.126339 H        1 UNL1     0.0649
     34 H         0.129726   3.475513   2.459917 H        1 UNL1     0.0683
     35 H         1.713259   2.29547   3.913936 H        1 UNL1     0.1085
     36 H         5.119147   3.669302   2.394104 H        1 UNL1     0.0691
     37 H         2.960669   -0.029955   1.858694 H        1 UNL1     0.0691
     38 H         7.070474   -1.986798   3.605946 H        1 UNL1     0.0385
     39 H         8.308072   -2.281264   2.368941 H        1 UNL1     0.0385
     40 H         6.058539   -3.271621   1.796102 H        1 UNL1     0.0789
     41 H         4.903187   -3.17774   -0.580946 H        1 UNL1     0.0623
     42 H         5.578722   -3.170258   -2.948598 H        1 UNL1     0.0654
     43 H         9.186657   -1.076494   -1.924713 H        1 UNL1     0.0654
     44 H         8.529791   -1.035707   0.414693 H        1 UNL1     0.0623
     45 H         8.743033   -2.208148   -3.95705 H        1 UNL1     0.2921
     46 H         7.922115   2.621901   1.666615 H        1 UNL1     0.2922
     47 H         2.662996   -1.222227   0.775829 H        1 UNL1     0.2126
     48 H         -1.139549   -0.137653   2.606648 H        1 UNL1     0.2101
     49 H         -0.500359   2.92937   -0.434283 H        1 UNL1     0.2100
     50 H         -0.214269   1.585   4.276785 H        1 UNL1     0.2102
@<TRIPOS>BOND
     1     1     2    1
     2     1     6    1
     3     2     3    1
     4     3     4    1
     5     3    29    1
     6     3    33    1
     7     4     5    1
     8     5     6    1
     9     5     7    1
    10     5    35    1
    11     7     8    1
    12     8     9   ar
    13     8    13   ar
    14     9    10   ar
    15     9    36    1
    16    10    11   ar
    17    10    26    1
    18    11    12   ar
    19    11    14    1
    20    12    13   ar
    21    12    17    1
    22    13    37    1
    23    14    15    1
    24    14    25    2
    25    15    16    1
    26    15    38    1
    27    15    39    1
    28    16    17    1
    29    16    18    1
    30    16    40    1
    31    18    19   ar
    32    18    23   ar
    33    19    20   ar
    34    19    41    1
    35    20    21   ar
    36    20    42    1
    37    21    22   ar
    38    21    24    1
    39    22    23   ar
    40    22    43    1
    41    23    44    1
    42    24    45    1
    43    26    46    1
    44    27    47    1
    45    28    48    1
    46    29    49    1
    47    30    50    1
    48     1    31    1
    49     1    27    1
    50     2    32    1
    51     2    28    1
    52     4    34    1
    53     4    30    1
