@<TRIPOS>MOLECULE
*****
 50 53 0 0 0
SMALL
GASTEIGER

@<TRIPOS>ATOM
     1 C         0.961769   0.894599   1.745135 C.3        1 UNL1     0.1889
     2 C         -0.28536   0.611205   0.865194 C.3        1 UNL1     0.1342
     3 C         -1.020349   1.866702   0.371247 C.3        1 UNL1     0.1174
     4 C         -0.994685   3.008834   1.390067 C.3        1 UNL1     0.1456
     5 C         0.406965   3.238319   1.98427 C.3        1 UNL1     0.2326
     6 O         0.882686   2.036322   2.585736 O.3        1 UNL1     -0.3076
     7 O         1.339336   3.810602   1.049124 O.3        1 UNL1     -0.4605
     8 C         2.418438   3.016105   0.705842 C.ar        1 UNL1     0.1310
     9 C         2.928015   1.964784   1.475489 C.ar        1 UNL1     0.0226
     10 C         4.017419   1.205334   1.032392 C.ar        1 UNL1     0.1343
     11 C         4.6092   1.4638   -0.203259 C.ar        1 UNL1     0.1007
     12 C         4.135358   2.537262   -0.962163 C.ar        1 UNL1     0.1389
     13 C         3.041647   3.302414   -0.515205 C.ar        1 UNL1     0.0229
     14 C         5.708206   0.639954   -0.757891 C.2        1 UNL1     0.1740
     15 C         6.07163   0.919269   -2.186686 C.3        1 UNL1     0.0520
     16 C         6.031895   2.424997   -2.408413 C.3        1 UNL1     0.1322
     17 O         4.711873   2.947932   -2.141674 O.3        1 UNL1     -0.4828
     18 C         7.166221   3.180529   -1.71185 C.ar        1 UNL1     -0.0067
     19 C         8.484816   2.689788   -1.80509 C.ar        1 UNL1     -0.0516
     20 C         9.5381   3.329815   -1.141072 C.ar        1 UNL1     -0.0198
     21 C         9.285214   4.454613   -0.376411 C.ar        1 UNL1     0.1169
     22 C         8.002808   4.981133   -0.292449 C.ar        1 UNL1     -0.0198
     23 C         6.952405   4.351989   -0.971337 C.ar        1 UNL1     -0.0516
     24 O         10.329702   5.029041   0.286522 O.3        1 UNL1     -0.5068
     25 O         6.248524   -0.272284   -0.137921 O.2        1 UNL1     -0.2917
     26 O         4.466939   0.194508   1.830984 O.3        1 UNL1     -0.5058
     27 O         2.182739   0.859086   1.0235 O.3        1 UNL1     -0.3648
     28 O         -1.22435   -0.158224   1.639134 O.3        1 UNL1     -0.3841
     29 O         -0.540395   2.261944   -0.915438 O.3        1 UNL1     -0.3863
     30 O         -1.910431   2.70559   2.464841 O.3        1 UNL1     -0.3829
     31 H         1.041885   0.061381   2.451823 H        1 UNL1     0.0937
     32 H         0.0   0.0   -0.0 H        1 UNL1     0.0671
     33 H         -2.075552   1.599699   0.219667 H        1 UNL1     0.0649
     34 H         -1.345243   3.935389   0.922087 H        1 UNL1     0.0683
     35 H         0.235637   3.955445   2.796831 H        1 UNL1     0.1085
     36 H         2.476876   1.67811   2.419106 H        1 UNL1     0.0691
     37 H         2.692478   4.133546   -1.124133 H        1 UNL1     0.0691
     38 H         5.339927   0.407248   -2.820699 H        1 UNL1     0.0385
     39 H         7.06021   0.496037   -2.394923 H        1 UNL1     0.0385
     40 H         6.18395   2.598165   -3.482384 H        1 UNL1     0.0789
     41 H         8.707871   1.803262   -2.391579 H        1 UNL1     0.0623
     42 H         10.548584   2.934809   -1.211088 H        1 UNL1     0.0654
     43 H         7.796185   5.870166   0.291364 H        1 UNL1     0.0654
     44 H         5.965087   4.796711   -0.89216 H        1 UNL1     0.0623
     45 H         10.928708   4.325076   0.583744 H        1 UNL1     0.2921
     46 H         5.377967   -0.031286   1.585104 H        1 UNL1     0.2922
     47 H         2.870408   0.428045   1.549974 H        1 UNL1     0.2126
     48 H         -2.086191   -0.086048   1.185533 H        1 UNL1     0.2101
     49 H         -0.573316   3.228379   -0.997371 H        1 UNL1     0.2100
     50 H         -1.489592   2.979807   3.30592 H        1 UNL1     0.2102
@<TRIPOS>BOND
     1     1     2    1
     2     1     6    1
     3     2     3    1
     4     3     4    1
     5     3    29    1
     6     3    33    1
     7     4     5    1
     8     5     6    1
     9     5     7    1
    10     5    35    1
    11     7     8    1
    12     8     9   ar
    13     8    13   ar
    14     9    10   ar
    15     9    36    1
    16    10    11   ar
    17    10    26    1
    18    11    12   ar
    19    11    14    1
    20    12    13   ar
    21    12    17    1
    22    13    37    1
    23    14    15    1
    24    14    25    2
    25    15    16    1
    26    15    38    1
    27    15    39    1
    28    16    17    1
    29    16    18    1
    30    16    40    1
    31    18    19   ar
    32    18    23   ar
    33    19    20   ar
    34    19    41    1
    35    20    21   ar
    36    20    42    1
    37    21    22   ar
    38    21    24    1
    39    22    23   ar
    40    22    43    1
    41    23    44    1
    42    24    45    1
    43    26    46    1
    44    27    47    1
    45    28    48    1
    46    29    49    1
    47    30    50    1
    48     1    31    1
    49     1    27    1
    50     2    32    1
    51     2    28    1
    52     4    34    1
    53     4    30    1
