@<TRIPOS>MOLECULE
*****
 50 53 0 0 0
SMALL
GASTEIGER

@<TRIPOS>ATOM
     1 C         -0.969007   -1.166683   -1.57184 C.3        1 UNL1     0.1889
     2 C         -0.941916   0.012332   -0.562321 C.3        1 UNL1     0.1342
     3 C         -2.1164   0.035792   0.427882 C.3        1 UNL1     0.1174
     4 C         -3.423489   -0.467452   -0.189679 C.3        1 UNL1     0.1456
     5 C         -3.236902   -1.773509   -0.983255 C.3        1 UNL1     0.2326
     6 O         -2.25544   -1.58806   -2.000708 O.3        1 UNL1     -0.3076
     7 O         -2.979076   -2.918508   -0.150294 O.3        1 UNL1     -0.4605
     8 C         -2.102097   -2.718492   0.900625 C.ar        1 UNL1     0.1310
     9 C         -1.497643   -1.500822   1.231101 C.ar        1 UNL1     0.0226
     10 C         -0.634349   -1.395574   2.328164 C.ar        1 UNL1     0.1343
     11 C         -0.372979   -2.501178   3.136352 C.ar        1 UNL1     0.1007
     12 C         -0.938375   -3.7319   2.792211 C.ar        1 UNL1     0.1389
     13 C         -1.804289   -3.838061   1.687515 C.ar        1 UNL1     0.0229
     14 C         0.464358   -2.427196   4.356003 C.2        1 UNL1     0.1740
     15 C         0.456843   -3.651188   5.223951 C.3        1 UNL1     0.0520
     16 C         0.488091   -4.879511   4.324949 C.3        1 UNL1     0.1322
     17 O         -0.663739   -4.906504   3.453382 O.3        1 UNL1     -0.4828
     18 C         1.82704   -5.088399   3.613397 C.ar        1 UNL1     -0.0067
     19 C         2.174641   -4.252455   2.532386 C.ar        1 UNL1     -0.0516
     20 C         3.369811   -4.446566   1.829639 C.ar        1 UNL1     -0.0198
     21 C         4.220451   -5.475396   2.192609 C.ar        1 UNL1     0.1169
     22 C         3.921663   -6.294223   3.273852 C.ar        1 UNL1     -0.0198
     23 C         2.735387   -6.088735   3.988401 C.ar        1 UNL1     -0.0516
     24 O         5.357183   -5.657593   1.46114 O.3        1 UNL1     -0.5068
     25 O         1.070353   -1.415714   4.699747 O.2        1 UNL1     -0.2917
     26 O         -0.076401   -0.179629   2.596041 O.3        1 UNL1     -0.5058
     27 O         -0.161737   -2.265444   -1.179634 O.3        1 UNL1     -0.3648
     28 O         -0.980359   1.246978   -1.301833 O.3        1 UNL1     -0.3841
     29 O         -1.775371   -0.648277   1.63531 O.3        1 UNL1     -0.3863
     30 O         -3.948358   0.543839   -1.077087 O.3        1 UNL1     -0.3829
     31 H         -0.499239   -0.801723   -2.491732 H        1 UNL1     0.0937
     32 H         0.0   0.0   0.0 H        1 UNL1     0.0671
     33 H         -2.285799   1.080884   0.72251 H        1 UNL1     0.0649
     34 H         -4.171644   -0.624856   0.595107 H        1 UNL1     0.0683
     35 H         -4.199506   -1.914599   -1.490567 H        1 UNL1     0.1085
     36 H         -1.704106   -0.592472   0.675769 H        1 UNL1     0.0691
     37 H         -2.230731   -4.807784   1.439972 H        1 UNL1     0.0691
     38 H         -0.458112   -3.625099   5.825368 H        1 UNL1     0.0385
     39 H         1.314512   -3.61407   5.904248 H        1 UNL1     0.0385
     40 H         0.363015   -5.757873   4.972525 H        1 UNL1     0.0789
     41 H         1.519551   -3.44361   2.222102 H        1 UNL1     0.0623
     42 H         3.620966   -3.802749   0.990335 H        1 UNL1     0.0654
     43 H         4.587926   -7.093388   3.576078 H        1 UNL1     0.0654
     44 H         2.538877   -6.740548   4.834195 H        1 UNL1     0.0623
     45 H         5.256628   -6.467162   0.934639 H        1 UNL1     0.2921
     46 H         0.869516   -0.291378   2.780878 H        1 UNL1     0.2922
     47 H         0.746547   -1.973358   -1.01974 H        1 UNL1     0.2126
     48 H         -1.921695   1.438363   -1.477876 H        1 UNL1     0.2101
     49 H         -2.52799   -1.182049   1.936054 H        1 UNL1     0.2100
     50 H         -4.239588   1.302883   -0.530507 H        1 UNL1     0.2102
@<TRIPOS>BOND
     1     1     2    1
     2     1     6    1
     3     2     3    1
     4     3     4    1
     5     3    29    1
     6     3    33    1
     7     4     5    1
     8     5     6    1
     9     5     7    1
    10     5    35    1
    11     7     8    1
    12     8     9   ar
    13     8    13   ar
    14     9    10   ar
    15     9    36    1
    16    10    11   ar
    17    10    26    1
    18    11    12   ar
    19    11    14    1
    20    12    13   ar
    21    12    17    1
    22    13    37    1
    23    14    15    1
    24    14    25    2
    25    15    16    1
    26    15    38    1
    27    15    39    1
    28    16    17    1
    29    16    18    1
    30    16    40    1
    31    18    19   ar
    32    18    23   ar
    33    19    20   ar
    34    19    41    1
    35    20    21   ar
    36    20    42    1
    37    21    22   ar
    38    21    24    1
    39    22    23   ar
    40    22    43    1
    41    23    44    1
    42    24    45    1
    43    26    46    1
    44    27    47    1
    45    28    48    1
    46    29    49    1
    47    30    50    1
    48     1    31    1
    49     1    27    1
    50     2    32    1
    51     2    28    1
    52     4    34    1
    53     4    30    1
