@<TRIPOS>MOLECULE
*****
 50 53 0 0 0
SMALL
GASTEIGER

@<TRIPOS>ATOM
     1 C         1.036196   -1.528837   1.166087 C.3        1 UNL1     0.1889
     2 C         -0.232094   -0.710593   0.802964 C.3        1 UNL1     0.1342
     3 C         -0.862552   0.050742   1.979127 C.3        1 UNL1     0.1174
     4 C         -0.740663   -0.701517   3.306669 C.3        1 UNL1     0.1456
     5 C         0.676514   -1.254469   3.543768 C.3        1 UNL1     0.2326
     6 O         1.053236   -2.105483   2.463618 O.3        1 UNL1     -0.3076
     7 O         1.650555   -0.233174   3.825763 O.3        1 UNL1     -0.4605
     8 C         2.680638   -0.595773   4.674869 C.ar        1 UNL1     0.1310
     9 C         2.529298   -1.002798   6.004804 C.ar        1 UNL1     0.0226
     10 C         3.636185   -1.36756   6.780466 C.ar        1 UNL1     0.1343
     11 C         4.920147   -1.356929   6.237171 C.ar        1 UNL1     0.1007
     12 C         5.088368   -0.913099   4.922827 C.ar        1 UNL1     0.1389
     13 C         3.975525   -0.54386   4.143934 C.ar        1 UNL1     0.0229
     14 C         6.114874   -1.81223   6.985157 C.2        1 UNL1     0.1740
     15 C         7.373834   -1.944549   6.179515 C.3        1 UNL1     0.0520
     16 C         7.453872   -0.769841   5.214315 C.3        1 UNL1     0.1322
     17 O         6.316866   -0.760009   4.323141 O.3        1 UNL1     -0.4828
     18 C         7.736264   0.570569   5.897163 C.ar        1 UNL1     -0.0067
     19 C         7.971188   0.603799   7.287098 C.ar        1 UNL1     -0.0516
     20 C         8.185644   1.817811   7.950533 C.ar        1 UNL1     -0.0198
     21 C         8.160388   3.003419   7.238126 C.ar        1 UNL1     0.1169
     22 C         7.964815   3.000252   5.863143 C.ar        1 UNL1     -0.0198
     23 C         7.768683   1.784843   5.196532 C.ar        1 UNL1     -0.0516
     24 O         8.33563   4.169159   7.924232 O.3        1 UNL1     -0.5068
     25 O         6.086681   -2.143401   8.167534 O.2        1 UNL1     -0.2917
     26 O         3.420671   -1.754012   8.071122 O.3        1 UNL1     -0.5058
     27 O         2.248398   -0.850064   0.878653 O.3        1 UNL1     -0.3648
     28 O         -1.229321   -1.616322   0.295127 O.3        1 UNL1     -0.3841
     29 O         -0.354783   1.384627   2.050215 O.3        1 UNL1     -0.3863
     30 O         -1.675686   -1.80213   3.315088 O.3        1 UNL1     -0.3829
     31 H         1.049218   -2.398009   0.499417 H        1 UNL1     0.0937
     32 H         0.0   0.0   0.0 H        1 UNL1     0.0671
     33 H         -1.936489   0.158013   1.772074 H        1 UNL1     0.0649
     34 H         -1.014973   -0.041521   4.137067 H        1 UNL1     0.0683
     35 H         0.566648   -1.89281   4.429392 H        1 UNL1     0.1085
     36 H         1.55224   -1.085931   6.468018 H        1 UNL1     0.0691
     37 H         4.133371   -0.200818   3.123689 H        1 UNL1     0.0691
     38 H         7.32325   -2.89631   5.63996 H        1 UNL1     0.0385
     39 H         8.232377   -1.981611   6.858711 H        1 UNL1     0.0385
     40 H         8.315943   -0.94869   4.55753 H        1 UNL1     0.0789
     41 H         7.98685   -0.31232   7.870306 H        1 UNL1     0.0623
     42 H         8.353888   1.831316   9.024555 H        1 UNL1     0.0654
     43 H         7.958094   3.921668   5.293179 H        1 UNL1     0.0654
     44 H         7.629406   1.818753   4.12029 H        1 UNL1     0.0623
     45 H         8.413989   3.960084   8.869147 H        1 UNL1     0.2921
     46 H         3.944065   -2.548217   8.262717 H        1 UNL1     0.2922
     47 H         2.514168   -1.012715   -0.037192 H        1 UNL1     0.2126
     48 H         -1.636017   -1.179656   -0.477954 H        1 UNL1     0.2101
     49 H         0.354528   1.432962   2.710772 H        1 UNL1     0.2100
     50 H         -1.742794   -2.133714   4.234469 H        1 UNL1     0.2102
@<TRIPOS>BOND
     1     1     2    1
     2     1     6    1
     3     2     3    1
     4     3     4    1
     5     3    29    1
     6     3    33    1
     7     4     5    1
     8     5     6    1
     9     5     7    1
    10     5    35    1
    11     7     8    1
    12     8     9   ar
    13     8    13   ar
    14     9    10   ar
    15     9    36    1
    16    10    11   ar
    17    10    26    1
    18    11    12   ar
    19    11    14    1
    20    12    13   ar
    21    12    17    1
    22    13    37    1
    23    14    15    1
    24    14    25    2
    25    15    16    1
    26    15    38    1
    27    15    39    1
    28    16    17    1
    29    16    18    1
    30    16    40    1
    31    18    19   ar
    32    18    23   ar
    33    19    20   ar
    34    19    41    1
    35    20    21   ar
    36    20    42    1
    37    21    22   ar
    38    21    24    1
    39    22    23   ar
    40    22    43    1
    41    23    44    1
    42    24    45    1
    43    26    46    1
    44    27    47    1
    45    28    48    1
    46    29    49    1
    47    30    50    1
    48     1    31    1
    49     1    27    1
    50     2    32    1
    51     2    28    1
    52     4    34    1
    53     4    30    1
