@<TRIPOS>MOLECULE
*****
 50 53 0 0 0
SMALL
GASTEIGER

@<TRIPOS>ATOM
     1 C         1.817804   1.124096   -0.450334 C.3        1 UNL1     0.1889
     2 C         0.919027   -0.134604   -0.583808 C.3        1 UNL1     0.1342
     3 C         1.591644   -1.450353   -0.163267 C.3        1 UNL1     0.1174
     4 C         3.085114   -1.48656   -0.496965 C.3        1 UNL1     0.1456
     5 C         3.813754   -0.194857   -0.083503 C.3        1 UNL1     0.2326
     6 O         3.20063   0.930423   -0.708556 O.3        1 UNL1     -0.3076
     7 O         3.951464   -0.045376   1.341282 O.3        1 UNL1     -0.4605
     8 C         3.731449   -1.184631   2.094421 C.ar        1 UNL1     0.1310
     9 C         4.088028   -1.349786   3.437133 C.ar        1 UNL1     0.0226
     10 C         3.806127   -2.539067   4.119809 C.ar        1 UNL1     0.1343
     11 C         3.138826   -3.584183   3.482405 C.ar        1 UNL1     0.1007
     12 C         2.814292   -3.446685   2.130164 C.ar        1 UNL1     0.1389
     13 C         3.100213   -2.251781   1.443227 C.ar        1 UNL1     0.0229
     14 C         2.741442   -4.829585   4.178978 C.2        1 UNL1     0.1740
     15 C         1.839546   -5.74641   3.405956 C.3        1 UNL1     0.0520
     16 C         2.307149   -5.773491   1.957311 C.3        1 UNL1     0.1322
     17 O         2.253917   -4.45179   1.376499 O.3        1 UNL1     -0.4828
     18 C         3.636901   -6.503271   1.752604 C.ar        1 UNL1     -0.0067
     19 C         4.255912   -7.13576   2.850327 C.ar        1 UNL1     -0.0516
     20 C         5.495226   -7.771221   2.708017 C.ar        1 UNL1     -0.0198
     21 C         6.127782   -7.77479   1.477697 C.ar        1 UNL1     0.1169
     22 C         5.527754   -7.189451   0.370365 C.ar        1 UNL1     -0.0198
     23 C         4.279855   -6.569928   0.508192 C.ar        1 UNL1     -0.0516
     24 O         7.351298   -8.370607   1.385989 O.3        1 UNL1     -0.5068
     25 O         3.049125   -5.082033   5.34091 O.2        1 UNL1     -0.2917
     26 O         4.181319   -2.636815   5.42796 O.3        1 UNL1     -0.5058
     27 O         1.605668   1.845246   0.752881 O.3        1 UNL1     -0.3648
     28 O         0.53086   -0.273704   -1.963186 O.3        1 UNL1     -0.3841
     29 O         1.324285   -1.740076   1.210309 O.3        1 UNL1     -0.3863
     30 O         3.248258   -1.67647   -1.91929 O.3        1 UNL1     -0.3829
     31 H         1.504683   1.817114   -1.238852 H        1 UNL1     0.0937
     32 H         0.0   0.0   0.0 H        1 UNL1     0.0671
     33 H         1.119439   -2.264613   -0.730473 H        1 UNL1     0.0649
     34 H         3.558054   -2.342531   -0.002959 H        1 UNL1     0.0683
     35 H         4.812048   -0.300984   -0.52625 H        1 UNL1     0.1085
     36 H         4.558591   -0.554075   4.004174 H        1 UNL1     0.0691
     37 H         2.838286   -2.170269   0.390496 H        1 UNL1     0.0691
     38 H         0.820624   -5.352569   3.484785 H        1 UNL1     0.0385
     39 H         1.8586   -6.740353   3.86584 H        1 UNL1     0.0385
     40 H         1.567098   -6.353098   1.389067 H        1 UNL1     0.0789
     41 H         3.784107   -7.138962   3.828612 H        1 UNL1     0.0623
     42 H         5.967911   -8.24511   3.56476 H        1 UNL1     0.0654
     43 H         6.007352   -7.199536   -0.601125 H        1 UNL1     0.0654
     44 H         3.835405   -6.131902   -0.380314 H        1 UNL1     0.0623
     45 H         7.967856   -7.89598   1.966766 H        1 UNL1     0.2921
     46 H         3.424682   -2.928748   5.960585 H        1 UNL1     0.2922
     47 H         1.977662   2.735269   0.679812 H        1 UNL1     0.2126
     48 H         -0.093843   0.452669   -2.152558 H        1 UNL1     0.2101
     49 H         0.845435   -2.58103   1.283061 H        1 UNL1     0.2100
     50 H         4.183918   -1.91379   -2.086422 H        1 UNL1     0.2102
@<TRIPOS>BOND
     1     1     2    1
     2     1     6    1
     3     2     3    1
     4     3     4    1
     5     3    29    1
     6     3    33    1
     7     4     5    1
     8     5     6    1
     9     5     7    1
    10     5    35    1
    11     7     8    1
    12     8     9   ar
    13     8    13   ar
    14     9    10   ar
    15     9    36    1
    16    10    11   ar
    17    10    26    1
    18    11    12   ar
    19    11    14    1
    20    12    13   ar
    21    12    17    1
    22    13    37    1
    23    14    15    1
    24    14    25    2
    25    15    16    1
    26    15    38    1
    27    15    39    1
    28    16    17    1
    29    16    18    1
    30    16    40    1
    31    18    19   ar
    32    18    23   ar
    33    19    20   ar
    34    19    41    1
    35    20    21   ar
    36    20    42    1
    37    21    22   ar
    38    21    24    1
    39    22    23   ar
    40    22    43    1
    41    23    44    1
    42    24    45    1
    43    26    46    1
    44    27    47    1
    45    28    48    1
    46    29    49    1
    47    30    50    1
    48     1    31    1
    49     1    27    1
    50     2    32    1
    51     2    28    1
    52     4    34    1
    53     4    30    1
