@<TRIPOS>MOLECULE
*****
 50 53 0 0 0
SMALL
GASTEIGER

@<TRIPOS>ATOM
     1 C         -1.270686   1.170789   1.336194 C.3        1 UNL1     0.1889
     2 C         -0.732394   0.813318   -0.075329 C.3        1 UNL1     0.1342
     3 C         -0.099939   1.988232   -0.836933 C.3        1 UNL1     0.1174
     4 C         -0.794254   3.32245   -0.552493 C.3        1 UNL1     0.1456
     5 C         -1.044181   3.549296   0.949653 C.3        1 UNL1     0.2326
     6 O         -1.814798   2.474279   1.481966 O.3        1 UNL1     -0.3076
     7 O         0.157513   3.808871   1.697899 O.3        1 UNL1     -0.4605
     8 C         1.205461   2.931288   1.485336 C.ar        1 UNL1     0.1310
     9 C         1.140815   1.762278   0.719479 C.ar        1 UNL1     0.0226
     10 C         2.264981   0.945461   0.549294 C.ar        1 UNL1     0.1343
     11 C         3.488434   1.290726   1.121828 C.ar        1 UNL1     0.1007
     12 C         3.555119   2.434027   1.922577 C.ar        1 UNL1     0.1389
     13 C         2.423972   3.253759   2.095715 C.ar        1 UNL1     0.0229
     14 C         4.72796   0.509113   0.90547 C.2        1 UNL1     0.1740
     15 C         5.991498   1.143224   1.408384 C.3        1 UNL1     0.0520
     16 C         5.700966   1.795948   2.752817 C.3        1 UNL1     0.1322
     17 O         4.679395   2.808903   2.620959 O.3        1 UNL1     -0.4828
     18 C         5.458795   0.794318   3.884548 C.ar        1 UNL1     -0.0067
     19 C         6.408916   0.675893   4.919661 C.ar        1 UNL1     -0.0516
     20 C         6.241584   -0.263299   5.944298 C.ar        1 UNL1     -0.0198
     21 C         5.134642   -1.093056   5.941139 C.ar        1 UNL1     0.1169
     22 C         4.164811   -0.977438   4.953769 C.ar        1 UNL1     -0.0198
     23 C         4.322611   -0.025741   3.939162 C.ar        1 UNL1     -0.0516
     24 O         5.024585   -2.021292   6.93445 O.3        1 UNL1     -0.5068
     25 O         4.759082   -0.551758   0.287351 O.2        1 UNL1     -0.2917
     26 O         2.135076   -0.181549   -0.208702 O.3        1 UNL1     -0.5058
     27 O         -0.36331   0.862023   2.382196 O.3        1 UNL1     -0.3648
     28 O         -1.828618   0.326929   -0.871837 O.3        1 UNL1     -0.3841
     29 O         1.310165   2.038859   -0.610712 O.3        1 UNL1     -0.3863
     30 O         -2.061868   3.353675   -1.243774 O.3        1 UNL1     -0.3829
     31 H         -2.127668   0.513579   1.519865 H        1 UNL1     0.0937
     32 H         0.0   0.0   0.0 H        1 UNL1     0.0671
     33 H         -0.216112   1.792371   -1.912044 H        1 UNL1     0.0649
     34 H         -0.193073   4.148663   -0.947911 H        1 UNL1     0.0683
     35 H         -1.679895   4.443066   0.980025 H        1 UNL1     0.1085
     36 H         0.233735   1.468594   0.202685 H        1 UNL1     0.0691
     37 H         2.50174   4.137828   2.724894 H        1 UNL1     0.0691
     38 H         6.306315   1.886602   0.668244 H        1 UNL1     0.0385
     39 H         6.772998   0.37903   1.4794 H        1 UNL1     0.0385
     40 H         6.602499   2.351556   3.044462 H        1 UNL1     0.0789
     41 H         7.290981   1.309303   4.939757 H        1 UNL1     0.0623
     42 H         6.987255   -0.353108   6.730378 H        1 UNL1     0.0654
     43 H         3.286557   -1.61192   4.950037 H        1 UNL1     0.0654
     44 H         3.540103   0.044296   3.189748 H        1 UNL1     0.0623
     45 H         4.409561   -1.681808   7.604683 H        1 UNL1     0.2921
     46 H         2.800964   -0.175351   -0.914369 H        1 UNL1     0.2922
     47 H         -0.702041   0.127941   2.913463 H        1 UNL1     0.2126
     48 H         -2.485191   -0.040621   -0.2493 H        1 UNL1     0.2101
     49 H         1.706858   1.174839   -0.805386 H        1 UNL1     0.2100
     50 H         -1.890948   3.190307   -2.194464 H        1 UNL1     0.2102
@<TRIPOS>BOND
     1     1     2    1
     2     1     6    1
     3     2     3    1
     4     3     4    1
     5     3    29    1
     6     3    33    1
     7     4     5    1
     8     5     6    1
     9     5     7    1
    10     5    35    1
    11     7     8    1
    12     8     9   ar
    13     8    13   ar
    14     9    10   ar
    15     9    36    1
    16    10    11   ar
    17    10    26    1
    18    11    12   ar
    19    11    14    1
    20    12    13   ar
    21    12    17    1
    22    13    37    1
    23    14    15    1
    24    14    25    2
    25    15    16    1
    26    15    38    1
    27    15    39    1
    28    16    17    1
    29    16    18    1
    30    16    40    1
    31    18    19   ar
    32    18    23   ar
    33    19    20   ar
    34    19    41    1
    35    20    21   ar
    36    20    42    1
    37    21    22   ar
    38    21    24    1
    39    22    23   ar
    40    22    43    1
    41    23    44    1
    42    24    45    1
    43    26    46    1
    44    27    47    1
    45    28    48    1
    46    29    49    1
    47    30    50    1
    48     1    31    1
    49     1    27    1
    50     2    32    1
    51     2    28    1
    52     4    34    1
    53     4    30    1
