@<TRIPOS>MOLECULE
*****
 50 53 0 0 0
SMALL
GASTEIGER

@<TRIPOS>ATOM
     1 C         1.039362   -1.757627   -0.775421 C.3        1 UNL1     0.1889
     2 C         -0.222947   -0.864615   -0.637414 C.3        1 UNL1     0.1342
     3 C         -1.462242   -1.586763   -0.086856 C.3        1 UNL1     0.1174
     4 C         -1.551731   -3.044742   -0.544465 C.3        1 UNL1     0.1456
     5 C         -0.214342   -3.792963   -0.396416 C.3        1 UNL1     0.2326
     6 O         0.805793   -3.113914   -1.125171 O.3        1 UNL1     -0.3076
     7 O         0.147055   -4.055788   0.971662 O.3        1 UNL1     -0.4605
     8 C         0.874312   -5.211034   1.195341 C.ar        1 UNL1     0.1310
     9 C         0.58704   -6.467531   0.651291 C.ar        1 UNL1     0.0226
     10 C         1.396132   -7.576788   0.924826 C.ar        1 UNL1     0.1343
     11 C         2.526873   -7.451114   1.730724 C.ar        1 UNL1     0.1007
     12 C         2.80081   -6.210599   2.312845 C.ar        1 UNL1     0.1389
     13 C         1.98562   -5.095999   2.039781 C.ar        1 UNL1     0.0229
     14 C         3.463222   -8.570446   1.984688 C.2        1 UNL1     0.1740
     15 C         4.738378   -8.203946   2.685547 C.3        1 UNL1     0.0520
     16 C         4.415498   -7.189678   3.774108 C.3        1 UNL1     0.1322
     17 O         3.824528   -5.99957   3.207125 O.3        1 UNL1     -0.4828
     18 C         3.643414   -7.77973   4.956668 C.ar        1 UNL1     -0.0067
     19 C         2.492599   -7.117912   5.43189 C.ar        1 UNL1     -0.0516
     20 C         1.790563   -7.604668   6.541024 C.ar        1 UNL1     -0.0198
     21 C         2.232415   -8.74559   7.186696 C.ar        1 UNL1     0.1169
     22 C         3.342941   -9.438112   6.721955 C.ar        1 UNL1     -0.0198
     23 C         4.034425   -8.961902   5.601629 C.ar        1 UNL1     -0.0516
     24 O         1.545183   -9.168527   8.286349 O.3        1 UNL1     -0.5068
     25 O         3.270411   -9.716571   1.587565 O.2        1 UNL1     -0.2917
     26 O         1.060535   -8.774423   0.363909 O.3        1 UNL1     -0.5058
     27 O         1.933515   -1.645846   0.320381 O.3        1 UNL1     -0.3648
     28 O         -0.56666   -0.356295   -1.939788 O.3        1 UNL1     -0.3841
     29 O         -1.541785   -1.446487   1.333049 O.3        1 UNL1     -0.3863
     30 O         -1.953451   -3.08222   -1.931154 O.3        1 UNL1     -0.3829
     31 H         1.606872   -1.367572   -1.627401 H        1 UNL1     0.0937
     32 H         0.0   0.0   0.0 H        1 UNL1     0.0671
     33 H         -2.351304   -1.074866   -0.480874 H        1 UNL1     0.0649
     34 H         -2.324952   -3.569461   0.02755 H        1 UNL1     0.0683
     35 H         -0.388143   -4.748813   -0.906341 H        1 UNL1     0.1085
     36 H         -0.245284   -6.618266   -0.027411 H        1 UNL1     0.0691
     37 H         2.219716   -4.1415   2.506282 H        1 UNL1     0.0691
     38 H         5.416668   -7.778714   1.938134 H        1 UNL1     0.0385
     39 H         5.199837   -9.111677   3.089105 H        1 UNL1     0.0385
     40 H         5.372013   -6.848546   4.192709 H        1 UNL1     0.0789
     41 H         2.130735   -6.215342   4.948081 H        1 UNL1     0.0623
     42 H         0.91148   -7.078717   6.905166 H        1 UNL1     0.0654
     43 H         3.688787   -10.340994   7.210938 H        1 UNL1     0.0654
     44 H         4.891504   -9.533929   5.25951 H        1 UNL1     0.0623
     45 H         1.580914   -8.468577   8.958294 H        1 UNL1     0.2921
     46 H         1.809076   -9.110087   -0.154191 H        1 UNL1     0.2922
     47 H         2.189169   -0.72203   0.451016 H        1 UNL1     0.2126
     48 H         0.185643   0.193006   -2.233115 H        1 UNL1     0.2101
     49 H         -1.747301   -0.526275   1.562759 H        1 UNL1     0.2100
     50 H         -2.867628   -2.734998   -1.989713 H        1 UNL1     0.2102
@<TRIPOS>BOND
     1     1     2    1
     2     1     6    1
     3     2     3    1
     4     3     4    1
     5     3    29    1
     6     3    33    1
     7     4     5    1
     8     5     6    1
     9     5     7    1
    10     5    35    1
    11     7     8    1
    12     8     9   ar
    13     8    13   ar
    14     9    10   ar
    15     9    36    1
    16    10    11   ar
    17    10    26    1
    18    11    12   ar
    19    11    14    1
    20    12    13   ar
    21    12    17    1
    22    13    37    1
    23    14    15    1
    24    14    25    2
    25    15    16    1
    26    15    38    1
    27    15    39    1
    28    16    17    1
    29    16    18    1
    30    16    40    1
    31    18    19   ar
    32    18    23   ar
    33    19    20   ar
    34    19    41    1
    35    20    21   ar
    36    20    42    1
    37    21    22   ar
    38    21    24    1
    39    22    23   ar
    40    22    43    1
    41    23    44    1
    42    24    45    1
    43    26    46    1
    44    27    47    1
    45    28    48    1
    46    29    49    1
    47    30    50    1
    48     1    31    1
    49     1    27    1
    50     2    32    1
    51     2    28    1
    52     4    34    1
    53     4    30    1
