@<TRIPOS>MOLECULE
*****
 50 53 0 0 0
SMALL
GASTEIGER

@<TRIPOS>ATOM
     1 C         -0.325655   -1.325863   1.704946 C.3        1 UNL1     0.1889
     2 C         -0.458924   -0.976551   0.198241 C.3        1 UNL1     0.1342
     3 C         -1.900358   -0.970033   -0.333445 C.3        1 UNL1     0.1174
     4 C         -2.782349   -2.030913   0.329688 C.3        1 UNL1     0.1456
     5 C         -2.629021   -2.052509   1.861481 C.3        1 UNL1     0.2326
     6 O         -1.26302   -2.265206   2.210293 O.3        1 UNL1     -0.3076
     7 O         -3.207155   -0.906054   2.511651 O.3        1 UNL1     -0.4605
     8 C         -3.715023   -1.120635   3.780332 C.ar        1 UNL1     0.1310
     9 C         -4.527447   -2.195578   4.156851 C.ar        1 UNL1     0.0226
     10 C         -4.978768   -2.334802   5.474739 C.ar        1 UNL1     0.1343
     11 C         -4.608647   -1.414421   6.454407 C.ar        1 UNL1     0.1007
     12 C         -3.831498   -0.31449   6.081616 C.ar        1 UNL1     0.1389
     13 C         -3.380008   -0.173298   4.755851 C.ar        1 UNL1     0.0229
     14 C         -4.987552   -1.558635   7.879113 C.2        1 UNL1     0.1740
     15 C         -4.320944   -0.606233   8.827857 C.3        1 UNL1     0.0520
     16 C         -4.256828   0.764636   8.168643 C.3        1 UNL1     0.1322
     17 O         -3.499157   0.707833   6.939912 O.3        1 UNL1     -0.4828
     18 C         -5.618498   1.452245   8.043052 C.ar        1 UNL1     -0.0067
     19 C         -5.999405   2.013742   6.806992 C.ar        1 UNL1     -0.0516
     20 C         -7.217059   2.690968   6.670445 C.ar        1 UNL1     -0.0198
     21 C         -8.05737   2.819596   7.761848 C.ar        1 UNL1     0.1169
     22 C         -7.725213   2.248539   8.983488 C.ar        1 UNL1     -0.0198
     23 C         -6.516044   1.555332   9.115516 C.ar        1 UNL1     -0.0516
     24 O         -9.217526   3.5185   7.600686 O.3        1 UNL1     -0.5068
     25 O         -5.733015   -2.441989   8.294392 O.2        1 UNL1     -0.2917
     26 O         -5.769231   -3.405159   5.776551 O.3        1 UNL1     -0.5058
     27 O         -0.223316   -0.185523   2.542763 O.3        1 UNL1     -0.3648
     28 O         0.274108   -1.954104   -0.563178 O.3        1 UNL1     -0.3841
     29 O         -2.462169   0.341845   -0.259446 O.3        1 UNL1     -0.3863
     30 O         -2.430948   -3.331621   -0.190279 O.3        1 UNL1     -0.3829
     31 H         0.63687   -1.835218   1.824033 H        1 UNL1     0.0937
     32 H         0.0   0.0   0.0 H        1 UNL1     0.0671
     33 H         -1.863676   -1.21171   -1.404877 H        1 UNL1     0.0649
     34 H         -3.833342   -1.856676   0.073847 H        1 UNL1     0.0683
     35 H         -3.180371   -2.949603   2.169888 H        1 UNL1     0.1085
     36 H         -4.80393   -2.974626   3.454882 H        1 UNL1     0.0691
     37 H         -2.777098   0.692623   4.490948 H        1 UNL1     0.0691
     38 H         -3.317113   -0.992599   9.034188 H        1 UNL1     0.0385
     39 H         -4.880316   -0.587146   9.769407 H        1 UNL1     0.0385
     40 H         -3.663465   1.413138   8.827343 H        1 UNL1     0.0789
     41 H         -5.353234   1.934304   5.937622 H        1 UNL1     0.0623
     42 H         -7.494092   3.129882   5.715134 H        1 UNL1     0.0654
     43 H         -8.382792   2.330315   9.8407 H        1 UNL1     0.0654
     44 H         -6.293432   1.112746   10.081645 H        1 UNL1     0.0623
     45 H         -8.994673   4.426845   7.339988 H        1 UNL1     0.2921
     46 H         -5.362997   -3.914897   6.495267 H        1 UNL1     0.2922
     47 H         0.517483   0.370146   2.262923 H        1 UNL1     0.2126
     48 H         1.207098   -1.884521   -0.283142 H        1 UNL1     0.2101
     49 H         -2.026084   0.924303   -0.901604 H        1 UNL1     0.2100
     50 H         -2.665164   -3.349466   -1.14135 H        1 UNL1     0.2102
@<TRIPOS>BOND
     1     1     2    1
     2     1     6    1
     3     2     3    1
     4     3     4    1
     5     3    29    1
     6     3    33    1
     7     4     5    1
     8     5     6    1
     9     5     7    1
    10     5    35    1
    11     7     8    1
    12     8     9   ar
    13     8    13   ar
    14     9    10   ar
    15     9    36    1
    16    10    11   ar
    17    10    26    1
    18    11    12   ar
    19    11    14    1
    20    12    13   ar
    21    12    17    1
    22    13    37    1
    23    14    15    1
    24    14    25    2
    25    15    16    1
    26    15    38    1
    27    15    39    1
    28    16    17    1
    29    16    18    1
    30    16    40    1
    31    18    19   ar
    32    18    23   ar
    33    19    20   ar
    34    19    41    1
    35    20    21   ar
    36    20    42    1
    37    21    22   ar
    38    21    24    1
    39    22    23   ar
    40    22    43    1
    41    23    44    1
    42    24    45    1
    43    26    46    1
    44    27    47    1
    45    28    48    1
    46    29    49    1
    47    30    50    1
    48     1    31    1
    49     1    27    1
    50     2    32    1
    51     2    28    1
    52     4    34    1
    53     4    30    1
