@<TRIPOS>MOLECULE
*****
 50 53 0 0 0
SMALL
GASTEIGER

@<TRIPOS>ATOM
     1 C         0.082666   -0.394678   2.146672 C.3        1 UNL1     0.1889
     2 C         -0.699162   -0.089779   0.840639 C.3        1 UNL1     0.1342
     3 C         -1.577771   1.169261   0.898319 C.3        1 UNL1     0.1174
     4 C         -2.194637   1.399714   2.280161 C.3        1 UNL1     0.1456
     5 C         -1.169869   1.24019   3.418039 C.3        1 UNL1     0.2326
     6 O         -0.574802   -0.054104   3.35834 O.3        1 UNL1     -0.3076
     7 O         -0.203508   2.305312   3.472649 O.3        1 UNL1     -0.4605
     8 C         -0.625031   3.475871   4.077328 C.ar        1 UNL1     0.1310
     9 C         0.211655   4.505825   4.520557 C.ar        1 UNL1     0.0226
     10 C         -0.31377   5.663373   5.106998 C.ar        1 UNL1     0.1343
     11 C         -1.691357   5.829576   5.242906 C.ar        1 UNL1     0.1007
     12 C         -2.53491   4.790312   4.841496 C.ar        1 UNL1     0.1389
     13 C         -2.006211   3.625372   4.254279 C.ar        1 UNL1     0.0229
     14 C         -2.304235   7.067275   5.77829 C.2        1 UNL1     0.1740
     15 C         -3.79585   7.162913   5.646049 C.3        1 UNL1     0.0520
     16 C         -4.395043   5.79665   5.949778 C.3        1 UNL1     0.1322
     17 O         -3.897836   4.802126   5.027402 O.3        1 UNL1     -0.4828
     18 C         -4.302018   5.397038   7.424356 C.ar        1 UNL1     -0.0067
     19 C         -3.73596   6.29634   8.351205 C.ar        1 UNL1     -0.0516
     20 C         -3.592516   5.943792   9.69846 C.ar        1 UNL1     -0.0198
     21 C         -4.003557   4.694974   10.128954 C.ar        1 UNL1     0.1169
     22 C         -4.595296   3.800306   9.246768 C.ar        1 UNL1     -0.0198
     23 C         -4.755737   4.159597   7.903182 C.ar        1 UNL1     -0.0516
     24 O         -3.813254   4.372684   11.440562 O.3        1 UNL1     -0.5068
     25 O         -1.651388   8.00349   6.231917 O.2        1 UNL1     -0.2917
     26 O         0.556388   6.630071   5.519194 O.3        1 UNL1     -0.5058
     27 O         1.421174   0.075216   2.127096 O.3        1 UNL1     -0.3648
     28 O         -1.5655   -1.20409   0.556958 O.3        1 UNL1     -0.3841
     29 O         -0.86376   2.308455   0.414007 O.3        1 UNL1     -0.3863
     30 O         -3.266096   0.453185   2.484481 O.3        1 UNL1     -0.3829
     31 H         0.180207   -1.484207   2.205761 H        1 UNL1     0.0937
     32 H         0.0   0.0   0.0 H        1 UNL1     0.0671
     33 H         -2.412258   1.028252   0.197271 H        1 UNL1     0.0649
     34 H         -2.637361   2.400676   2.32987 H        1 UNL1     0.0683
     35 H         -1.780035   1.268975   4.329493 H        1 UNL1     0.1085
     36 H         1.287639   4.461416   4.392466 H        1 UNL1     0.0691
     37 H         -2.684159   2.830372   3.951205 H        1 UNL1     0.0691
     38 H         -4.018137   7.472237   4.619193 H        1 UNL1     0.0385
     39 H         -4.167398   7.938148   6.324827 H        1 UNL1     0.0385
     40 H         -5.470021   5.85917   5.732908 H        1 UNL1     0.0789
     41 H         -3.397156   7.279092   8.036467 H        1 UNL1     0.0623
     42 H         -3.143603   6.641515   10.401079 H        1 UNL1     0.0654
     43 H         -4.934476   2.8255   9.576345 H        1 UNL1     0.0654
     44 H         -5.23169   3.440043   7.243974 H        1 UNL1     0.0623
     45 H         -4.522732   3.768905   11.714073 H        1 UNL1     0.2921
     46 H         0.201168   7.070295   6.307505 H        1 UNL1     0.2922
     47 H         2.036847   -0.66957   2.081268 H        1 UNL1     0.2126
     48 H         -2.476919   -0.902425   0.735969 H        1 UNL1     0.2101
     49 H         -1.396776   3.109718   0.539167 H        1 UNL1     0.2100
     50 H         -3.15338   0.057474   3.373537 H        1 UNL1     0.2102
@<TRIPOS>BOND
     1     1     2    1
     2     1     6    1
     3     2     3    1
     4     3     4    1
     5     3    29    1
     6     3    33    1
     7     4     5    1
     8     5     6    1
     9     5     7    1
    10     5    35    1
    11     7     8    1
    12     8     9   ar
    13     8    13   ar
    14     9    10   ar
    15     9    36    1
    16    10    11   ar
    17    10    26    1
    18    11    12   ar
    19    11    14    1
    20    12    13   ar
    21    12    17    1
    22    13    37    1
    23    14    15    1
    24    14    25    2
    25    15    16    1
    26    15    38    1
    27    15    39    1
    28    16    17    1
    29    16    18    1
    30    16    40    1
    31    18    19   ar
    32    18    23   ar
    33    19    20   ar
    34    19    41    1
    35    20    21   ar
    36    20    42    1
    37    21    22   ar
    38    21    24    1
    39    22    23   ar
    40    22    43    1
    41    23    44    1
    42    24    45    1
    43    26    46    1
    44    27    47    1
    45    28    48    1
    46    29    49    1
    47    30    50    1
    48     1    31    1
    49     1    27    1
    50     2    32    1
    51     2    28    1
    52     4    34    1
    53     4    30    1
