@<TRIPOS>MOLECULE
*****
 50 53 0 0 0
SMALL
GASTEIGER

@<TRIPOS>ATOM
     1 C         -1.551698   -0.398467   -1.484676 C.3        1 UNL1     0.1889
     2 C         -0.964605   0.423659   -0.30596 C.3        1 UNL1     0.1342
     3 C         -1.88001   0.525115   0.923757 C.3        1 UNL1     0.1174
     4 C         -3.364213   0.590588   0.555013 C.3        1 UNL1     0.1456
     5 C         -3.758918   -0.465101   -0.49384 C.3        1 UNL1     0.2326
     6 O         -2.957751   -0.311699   -1.663228 O.3        1 UNL1     -0.3076
     7 O         -3.76019   -1.809913   0.0188 O.3        1 UNL1     -0.4605
     8 C         -4.545531   -2.032192   1.135652 C.ar        1 UNL1     0.1310
     9 C         -5.135116   -1.037142   1.922778 C.ar        1 UNL1     0.0226
     10 C         -5.930083   -1.364592   3.027633 C.ar        1 UNL1     0.1343
     11 C         -6.174458   -2.696784   3.358368 C.ar        1 UNL1     0.1007
     12 C         -5.557762   -3.698781   2.604397 C.ar        1 UNL1     0.1389
     13 C         -4.756322   -3.369232   1.495108 C.ar        1 UNL1     0.0229
     14 C         -7.073944   -3.100092   4.464 C.2        1 UNL1     0.1740
     15 C         -7.397256   -4.563543   4.537001 C.3        1 UNL1     0.0520
     16 C         -6.132246   -5.352414   4.228148 C.3        1 UNL1     0.1322
     17 O         -5.64198   -5.038257   2.906023 O.3        1 UNL1     -0.4828
     18 C         -5.074197   -5.276944   5.331579 C.ar        1 UNL1     -0.0067
     19 C         -5.470488   -5.390753   6.679991 C.ar        1 UNL1     -0.0516
     20 C         -4.535014   -5.27878   7.715517 C.ar        1 UNL1     -0.0198
     21 C         -3.204444   -5.046187   7.416668 C.ar        1 UNL1     0.1169
     22 C         -2.778234   -4.962808   6.09749 C.ar        1 UNL1     -0.0198
     23 C         -3.710554   -5.093148   5.061225 C.ar        1 UNL1     -0.0516
     24 O         -2.328398   -4.905056   8.452538 O.3        1 UNL1     -0.5068
     25 O         -7.598639   -2.300514   5.23462 O.2        1 UNL1     -0.2917
     26 O         -6.47518   -0.346916   3.754814 O.3        1 UNL1     -0.5058
     27 O         -1.10192   -1.743668   -1.515034 O.3        1 UNL1     -0.3648
     28 O         -0.714217   1.764889   -0.765433 O.3        1 UNL1     -0.3841
     29 O         -1.587782   -0.513756   1.860497 O.3        1 UNL1     -0.3863
     30 O         -3.664369   1.901826   0.029415 O.3        1 UNL1     -0.3829
     31 H         -1.149251   0.041226   -2.403799 H        1 UNL1     0.0937
     32 H         0.0   0.0   0.0 H        1 UNL1     0.0671
     33 H         -1.64011   1.462978   1.443932 H        1 UNL1     0.0649
     34 H         -3.978717   0.456476   1.452119 H        1 UNL1     0.0683
     35 H         -4.784477   -0.191395   -0.771676 H        1 UNL1     0.1085
     36 H         -5.029168   0.015599   1.684804 H        1 UNL1     0.0691
     37 H         -4.286562   -4.167878   0.925035 H        1 UNL1     0.0691
     38 H         -8.179861   -4.767062   3.798329 H        1 UNL1     0.0385
     39 H         -7.79656   -4.793786   5.530642 H        1 UNL1     0.0385
     40 H         -6.417226   -6.411666   4.170771 H        1 UNL1     0.0789
     41 H         -6.510398   -5.564208   6.941048 H        1 UNL1     0.0623
     42 H         -4.854909   -5.356508   8.751682 H        1 UNL1     0.0654
     43 H         -1.736271   -4.795848   5.85183 H        1 UNL1     0.0654
     44 H         -3.340824   -5.03323   4.04213 H        1 UNL1     0.0623
     45 H         -1.813555   -4.094208   8.310488 H        1 UNL1     0.2921
     46 H         -6.499612   -0.596087   4.692219 H        1 UNL1     0.2922
     47 H         -1.625613   -2.257655   -2.145449 H        1 UNL1     0.2126
     48 H         -0.475286   1.696951   -1.709906 H        1 UNL1     0.2101
     49 H         -1.773165   -0.206746   2.762258 H        1 UNL1     0.2100
     50 H         -3.302858   1.952249   -0.879694 H        1 UNL1     0.2102
@<TRIPOS>BOND
     1     1     2    1
     2     1     6    1
     3     2     3    1
     4     3     4    1
     5     3    29    1
     6     3    33    1
     7     4     5    1
     8     5     6    1
     9     5     7    1
    10     5    35    1
    11     7     8    1
    12     8     9   ar
    13     8    13   ar
    14     9    10   ar
    15     9    36    1
    16    10    11   ar
    17    10    26    1
    18    11    12   ar
    19    11    14    1
    20    12    13   ar
    21    12    17    1
    22    13    37    1
    23    14    15    1
    24    14    25    2
    25    15    16    1
    26    15    38    1
    27    15    39    1
    28    16    17    1
    29    16    18    1
    30    16    40    1
    31    18    19   ar
    32    18    23   ar
    33    19    20   ar
    34    19    41    1
    35    20    21   ar
    36    20    42    1
    37    21    22   ar
    38    21    24    1
    39    22    23   ar
    40    22    43    1
    41    23    44    1
    42    24    45    1
    43    26    46    1
    44    27    47    1
    45    28    48    1
    46    29    49    1
    47    30    50    1
    48     1    31    1
    49     1    27    1
    50     2    32    1
    51     2    28    1
    52     4    34    1
    53     4    30    1
