@<TRIPOS>MOLECULE
*****
 50 53 0 0 0
SMALL
GASTEIGER

@<TRIPOS>ATOM
     1 C         1.249976   1.61027   0.784472 C.3        1 UNL1     0.1889
     2 C         -0.010587   0.705909   0.839727 C.3        1 UNL1     0.1342
     3 C         -1.34572   1.466095   0.838519 C.3        1 UNL1     0.1174
     4 C         -1.272677   2.795079   1.594551 C.3        1 UNL1     0.1456
     5 C         -0.027365   3.619377   1.220255 C.3        1 UNL1     0.2326
     6 O         1.15188   2.854952   1.460888 O.3        1 UNL1     -0.3076
     7 O         -0.082971   4.170928   -0.107909 O.3        1 UNL1     -0.4605
     8 C         -0.977085   5.209525   -0.29607 C.ar        1 UNL1     0.1310
     9 C         -1.280622   6.198198   0.646103 C.ar        1 UNL1     0.0226
     10 C         -2.190129   7.221578   0.35388 C.ar        1 UNL1     0.1343
     11 C         -2.800801   7.294729   -0.897347 C.ar        1 UNL1     0.1007
     12 C         -2.536856   6.289973   -1.832003 C.ar        1 UNL1     0.1389
     13 C         -1.624326   5.25959   -1.536994 C.ar        1 UNL1     0.0229
     14 C         -3.705084   8.400753   -1.288674 C.2        1 UNL1     0.1740
     15 C         -4.0929   8.440559   -2.737661 C.3        1 UNL1     0.0520
     16 C         -4.349081   7.015118   -3.207178 C.3        1 UNL1     0.1322
     17 O         -3.163708   6.203747   -3.053432 O.3        1 UNL1     -0.4828
     18 C         -5.622201   6.394628   -2.626764 C.ar        1 UNL1     -0.0067
     19 C         -6.87732   6.781986   -3.139448 C.ar        1 UNL1     -0.0516
     20 C         -8.063002   6.269613   -2.599455 C.ar        1 UNL1     -0.0198
     21 C         -8.007334   5.376836   -1.544145 C.ar        1 UNL1     0.1169
     22 C         -6.78551   4.950759   -1.039721 C.ar        1 UNL1     -0.0198
     23 C         -5.599219   5.448851   -1.591693 C.ar        1 UNL1     -0.0516
     24 O         -9.183637   4.928212   -1.019314 O.3        1 UNL1     -0.5068
     25 O         -4.063857   9.286064   -0.516669 O.2        1 UNL1     -0.2917
     26 O         -2.443328   8.154409   1.316845 O.3        1 UNL1     -0.5058
     27 O         1.777846   1.765046   -0.523268 O.3        1 UNL1     -0.3648
     28 O         0.038576   -0.071599   2.050417 O.3        1 UNL1     -0.3841
     29 O         -1.844169   1.613314   -0.492649 O.3        1 UNL1     -0.3863
     30 O         -1.245321   2.531589   3.014239 O.3        1 UNL1     -0.3829
     31 H         2.037979   1.082371   1.332607 H        1 UNL1     0.0937
     32 H         0.0   0.0   0.0 H        1 UNL1     0.0671
     33 H         -2.086309   0.843958   1.360241 H        1 UNL1     0.0649
     34 H         -2.172153   3.388276   1.395904 H        1 UNL1     0.0683
     35 H         -0.027306   4.442685   1.945543 H        1 UNL1     0.1085
     36 H         -0.797321   6.228742   1.616468 H        1 UNL1     0.0691
     37 H         -1.43696   4.488714   -2.281398 H        1 UNL1     0.0691
     38 H         -3.263701   8.895328   -3.290058 H        1 UNL1     0.0385
     39 H         -4.974227   9.080136   -2.855905 H        1 UNL1     0.0385
     40 H         -4.514596   7.056534   -4.292263 H        1 UNL1     0.0789
     41 H         -6.948082   7.488369   -3.961438 H        1 UNL1     0.0623
     42 H         -9.025015   6.585156   -2.995656 H        1 UNL1     0.0654
     43 H         -6.730109   4.240482   -0.22342 H        1 UNL1     0.0654
     44 H         -4.662313   5.086186   -1.179957 H        1 UNL1     0.0623
     45 H         -9.025544   4.063439   -0.607135 H        1 UNL1     0.2921
     46 H         -2.608625   9.01426   0.89882 H        1 UNL1     0.2922
     47 H         2.706676   1.495371   -0.543491 H        1 UNL1     0.2126
     48 H         -0.082965   0.554472   2.790009 H        1 UNL1     0.2101
     49 H         -1.181487   2.056476   -1.04605 H        1 UNL1     0.2100
     50 H         -1.099282   3.383064   3.476166 H        1 UNL1     0.2102
@<TRIPOS>BOND
     1     1     2    1
     2     1     6    1
     3     2     3    1
     4     3     4    1
     5     3    29    1
     6     3    33    1
     7     4     5    1
     8     5     6    1
     9     5     7    1
    10     5    35    1
    11     7     8    1
    12     8     9   ar
    13     8    13   ar
    14     9    10   ar
    15     9    36    1
    16    10    11   ar
    17    10    26    1
    18    11    12   ar
    19    11    14    1
    20    12    13   ar
    21    12    17    1
    22    13    37    1
    23    14    15    1
    24    14    25    2
    25    15    16    1
    26    15    38    1
    27    15    39    1
    28    16    17    1
    29    16    18    1
    30    16    40    1
    31    18    19   ar
    32    18    23   ar
    33    19    20   ar
    34    19    41    1
    35    20    21   ar
    36    20    42    1
    37    21    22   ar
    38    21    24    1
    39    22    23   ar
    40    22    43    1
    41    23    44    1
    42    24    45    1
    43    26    46    1
    44    27    47    1
    45    28    48    1
    46    29    49    1
    47    30    50    1
    48     1    31    1
    49     1    27    1
    50     2    32    1
    51     2    28    1
    52     4    34    1
    53     4    30    1
