@<TRIPOS>MOLECULE
*****
 50 53 0 0 0
SMALL
GASTEIGER

@<TRIPOS>ATOM
     1 C         -2.134477   -0.396021   -0.240788 C.3        1 UNL1     0.1889
     2 C         -0.694709   -0.265603   -0.806472 C.3        1 UNL1     0.1342
     3 C         -0.544859   0.748211   -1.951108 C.3        1 UNL1     0.1174
     4 C         -1.776267   0.805056   -2.858588 C.3        1 UNL1     0.1456
     5 C         -3.092696   0.875976   -2.063384 C.3        1 UNL1     0.2326
     6 O         -3.187739   -0.239279   -1.180185 O.3        1 UNL1     -0.3076
     7 O         -3.296789   2.138903   -1.404081 O.3        1 UNL1     -0.4605
     8 C         -2.198853   2.663837   -0.746427 C.ar        1 UNL1     0.1310
     9 C         -1.309704   1.937702   0.053224 C.ar        1 UNL1     0.0226
     10 C         -0.21421   2.558524   0.665087 C.ar        1 UNL1     0.1343
     11 C         0.032438   3.917183   0.472596 C.ar        1 UNL1     0.1007
     12 C         -0.871485   4.661202   -0.290387 C.ar        1 UNL1     0.1389
     13 C         -1.9744   4.037269   -0.903345 C.ar        1 UNL1     0.0229
     14 C         1.220954   4.606268   1.026442 C.2        1 UNL1     0.1740
     15 C         1.445583   6.007147   0.537946 C.3        1 UNL1     0.0520
     16 C         0.098048   6.711128   0.457214 C.3        1 UNL1     0.1322
     17 O         -0.785526   6.024061   -0.45619 O.3        1 UNL1     -0.4828
     18 C         -0.518159   7.020881   1.823621 C.ar        1 UNL1     -0.0067
     19 C         0.278081   7.616265   2.823487 C.ar        1 UNL1     -0.0516
     20 C         -0.24074   7.869383   4.098916 C.ar        1 UNL1     -0.0198
     21 C         -1.549129   7.525808   4.388571 C.ar        1 UNL1     0.1169
     22 C         -2.368014   6.968873   3.414872 C.ar        1 UNL1     -0.0198
     23 C         -1.854959   6.732588   2.133857 C.ar        1 UNL1     -0.0516
     24 O         -2.008223   7.752696   5.652753 O.3        1 UNL1     -0.5068
     25 O         2.029793   4.063371   1.774458 O.2        1 UNL1     -0.2917
     26 O         0.614572   1.79414   1.433475 O.3        1 UNL1     -0.5058
     27 O         -2.355156   0.378068   0.92749 O.3        1 UNL1     -0.3648
     28 O         -0.2864   -1.549156   -1.314883 O.3        1 UNL1     -0.3841
     29 O         -0.169826   2.031352   -1.446102 O.3        1 UNL1     -0.3863
     30 O         -1.802554   -0.371482   -3.695701 O.3        1 UNL1     -0.3829
     31 H         -2.245057   -1.432118   0.097374 H        1 UNL1     0.0937
     32 H         0.0   0.0   0.0 H        1 UNL1     0.0671
     33 H         0.297349   0.423915   -2.578194 H        1 UNL1     0.0649
     34 H         -1.709562   1.671646   -3.52565 H        1 UNL1     0.0683
     35 H         -3.870113   0.74558   -2.826601 H        1 UNL1     0.1085
     36 H         -1.414898   0.867852   0.19632 H        1 UNL1     0.0691
     37 H         -2.66402   4.638963   -1.491462 H        1 UNL1     0.0691
     38 H         1.91704   5.94231   -0.448487 H        1 UNL1     0.0385
     39 H         2.139005   6.516735   1.215637 H        1 UNL1     0.0385
     40 H         0.271346   7.689122   -0.011844 H        1 UNL1     0.0789
     41 H         1.310837   7.886868   2.623885 H        1 UNL1     0.0623
     42 H         0.386845   8.318041   4.86498 H        1 UNL1     0.0654
     43 H         -3.398552   6.709823   3.626519 H        1 UNL1     0.0654
     44 H         -2.52601   6.305951   1.394589 H        1 UNL1     0.0623
     45 H         -2.789569   7.195419   5.799919 H        1 UNL1     0.2921
     46 H         1.466871   1.687228   0.982289 H        1 UNL1     0.2922
     47 H         -1.62148   0.264733   1.547759 H        1 UNL1     0.2126
     48 H         -0.971629   -2.189088   -1.041609 H        1 UNL1     0.2101
     49 H         -0.944058   2.475063   -1.064685 H        1 UNL1     0.2100
     50 H         -1.686545   -1.154672   -3.118755 H        1 UNL1     0.2102
@<TRIPOS>BOND
     1     1     2    1
     2     1     6    1
     3     2     3    1
     4     3     4    1
     5     3    29    1
     6     3    33    1
     7     4     5    1
     8     5     6    1
     9     5     7    1
    10     5    35    1
    11     7     8    1
    12     8     9   ar
    13     8    13   ar
    14     9    10   ar
    15     9    36    1
    16    10    11   ar
    17    10    26    1
    18    11    12   ar
    19    11    14    1
    20    12    13   ar
    21    12    17    1
    22    13    37    1
    23    14    15    1
    24    14    25    2
    25    15    16    1
    26    15    38    1
    27    15    39    1
    28    16    17    1
    29    16    18    1
    30    16    40    1
    31    18    19   ar
    32    18    23   ar
    33    19    20   ar
    34    19    41    1
    35    20    21   ar
    36    20    42    1
    37    21    22   ar
    38    21    24    1
    39    22    23   ar
    40    22    43    1
    41    23    44    1
    42    24    45    1
    43    26    46    1
    44    27    47    1
    45    28    48    1
    46    29    49    1
    47    30    50    1
    48     1    31    1
    49     1    27    1
    50     2    32    1
    51     2    28    1
    52     4    34    1
    53     4    30    1
