@<TRIPOS>MOLECULE
*****
 50 53 0 0 0
SMALL
GASTEIGER

@<TRIPOS>ATOM
     1 C         -0.396294   -1.430898   1.601963 C.3        1 UNL1     0.1889
     2 C         -0.468409   -0.98516   0.116683 C.3        1 UNL1     0.1342
     3 C         -1.887369   -0.938066   -0.470512 C.3        1 UNL1     0.1174
     4 C         -2.797294   -2.035255   0.087458 C.3        1 UNL1     0.1456
     5 C         -2.705501   -2.155653   1.619595 C.3        1 UNL1     0.2326
     6 O         -1.35499   -2.396441   2.008195 O.3        1 UNL1     -0.3076
     7 O         -3.306973   -1.05061   2.318473 O.3        1 UNL1     -0.4605
     8 C         -3.875675   -1.345949   3.544393 C.ar        1 UNL1     0.1310
     9 C         -4.703018   -2.442215   3.810861 C.ar        1 UNL1     0.0226
     10 C         -5.217819   -2.665566   5.093435 C.ar        1 UNL1     0.1343
     11 C         -4.898103   -1.810427   6.147171 C.ar        1 UNL1     0.1007
     12 C         -4.106233   -0.689433   5.884302 C.ar        1 UNL1     0.1389
     13 C         -3.590884   -0.463613   4.594011 C.ar        1 UNL1     0.0229
     14 C         -5.345778   -2.045688   7.539433 C.2        1 UNL1     0.1740
     15 C         -4.728495   -1.156851   8.578893 C.3        1 UNL1     0.0520
     16 C         -4.63545   0.253536   8.013113 C.3        1 UNL1     0.1322
     17 O         -3.818565   0.275276   6.821772 O.3        1 UNL1     -0.4828
     18 C         -5.990956   0.948928   7.865602 C.ar        1 UNL1     -0.0067
     19 C         -6.034275   2.316703   7.525708 C.ar        1 UNL1     -0.0516
     20 C         -7.255405   2.994565   7.429228 C.ar        1 UNL1     -0.0198
     21 C         -8.437087   2.319203   7.676897 C.ar        1 UNL1     0.1169
     22 C         -8.428828   0.964088   7.980925 C.ar        1 UNL1     -0.0198
     23 C         -7.20895   0.281594   8.059383 C.ar        1 UNL1     -0.0516
     24 O         -9.604537   3.021386   7.610563 O.3        1 UNL1     -0.5068
     25 O         -6.108577   -2.953312   7.860124 O.2        1 UNL1     -0.2917
     26 O         -6.01959   -3.752467   5.286807 O.3        1 UNL1     -0.5058
     27 O         -0.325371   -0.34706   2.51468 O.3        1 UNL1     -0.3648
     28 O         0.292625   -1.915222   -0.676109 O.3        1 UNL1     -0.3841
     29 O         -2.449124   0.368903   -0.334885 O.3        1 UNL1     -0.3863
     30 O         -2.42789   -3.301549   -0.50053 O.3        1 UNL1     -0.3829
     31 H         0.559689   -1.951186   1.726368 H        1 UNL1     0.0937
     32 H         0.0   0.0   0.0 H        1 UNL1     0.0671
     33 H         -1.808264   -1.110756   -1.552936 H        1 UNL1     0.0649
     34 H         -3.836851   -1.84023   -0.198352 H        1 UNL1     0.0683
     35 H         -3.270518   -3.068161   1.847547 H        1 UNL1     0.1085
     36 H         -4.943093   -3.174258   3.04758 H        1 UNL1     0.0691
     37 H         -2.97777   0.417057   4.415116 H        1 UNL1     0.0691
     38 H         -3.735042   -1.556522   8.808765 H        1 UNL1     0.0385
     39 H         -5.333211   -1.197916   9.491259 H        1 UNL1     0.0385
     40 H         -4.07646   0.857825   8.740358 H        1 UNL1     0.0789
     41 H         -5.120112   2.871475   7.335484 H        1 UNL1     0.0623
     42 H         -7.274957   4.052164   7.178005 H        1 UNL1     0.0654
     43 H         -9.349278   0.421964   8.161987 H        1 UNL1     0.0654
     44 H         -7.240452   -0.779171   8.288796 H        1 UNL1     0.0623
     45 H         -9.604426   3.684322   8.319952 H        1 UNL1     0.2921
     46 H         -5.660498   -4.295472   6.006259 H        1 UNL1     0.2922
     47 H         0.414754   0.233341   2.288385 H        1 UNL1     0.2126
     48 H         1.234199   -1.742183   -0.483161 H        1 UNL1     0.2101
     49 H         -2.120581   0.944512   -1.043777 H        1 UNL1     0.2100
     50 H         -2.650061   -3.267472   -1.454046 H        1 UNL1     0.2102
@<TRIPOS>BOND
     1     1     2    1
     2     1     6    1
     3     2     3    1
     4     3     4    1
     5     3    29    1
     6     3    33    1
     7     4     5    1
     8     5     6    1
     9     5     7    1
    10     5    35    1
    11     7     8    1
    12     8     9   ar
    13     8    13   ar
    14     9    10   ar
    15     9    36    1
    16    10    11   ar
    17    10    26    1
    18    11    12   ar
    19    11    14    1
    20    12    13   ar
    21    12    17    1
    22    13    37    1
    23    14    15    1
    24    14    25    2
    25    15    16    1
    26    15    38    1
    27    15    39    1
    28    16    17    1
    29    16    18    1
    30    16    40    1
    31    18    19   ar
    32    18    23   ar
    33    19    20   ar
    34    19    41    1
    35    20    21   ar
    36    20    42    1
    37    21    22   ar
    38    21    24    1
    39    22    23   ar
    40    22    43    1
    41    23    44    1
    42    24    45    1
    43    26    46    1
    44    27    47    1
    45    28    48    1
    46    29    49    1
    47    30    50    1
    48     1    31    1
    49     1    27    1
    50     2    32    1
    51     2    28    1
    52     4    34    1
    53     4    30    1
