@<TRIPOS>MOLECULE
*****
 50 53 0 0 0
SMALL
GASTEIGER

@<TRIPOS>ATOM
     1 C         -0.32646   -1.360782   1.677051 C.3        1 UNL1     0.1889
     2 C         -0.465449   -0.977134   0.179241 C.3        1 UNL1     0.1342
     3 C         -1.909753   -0.947707   -0.343814 C.3        1 UNL1     0.1174
     4 C         -2.796298   -2.016187   0.300782 C.3        1 UNL1     0.1456
     5 C         -2.63454   -2.072921   1.830808 C.3        1 UNL1     0.2326
     6 O         -1.268311   -2.303834   2.166912 O.3        1 UNL1     -0.3076
     7 O         -3.2   -0.936733   2.509521 O.3        1 UNL1     -0.4605
     8 C         -3.712626   -1.177831   3.77151 C.ar        1 UNL1     0.1310
     9 C         -4.538558   -2.252259   4.118988 C.ar        1 UNL1     0.0226
     10 C         -4.993822   -2.41998   5.432193 C.ar        1 UNL1     0.1343
     11 C         -4.614388   -1.529701   6.435823 C.ar        1 UNL1     0.1007
     12 C         -3.823435   -0.429965   6.092665 C.ar        1 UNL1     0.1389
     13 C         -3.367965   -0.260075   4.771637 C.ar        1 UNL1     0.0229
     14 C         -4.997488   -1.706038   7.855785 C.2        1 UNL1     0.1740
     15 C         -4.32115   -0.786526   8.829753 C.3        1 UNL1     0.0520
     16 C         -4.239424   0.600019   8.206237 C.3        1 UNL1     0.1322
     17 O         -3.480342   0.565801   6.977541 O.3        1 UNL1     -0.4828
     18 C         -5.592516   1.306996   8.096479 C.ar        1 UNL1     -0.0067
     19 C         -5.95811   1.917642   6.879242 C.ar        1 UNL1     -0.0516
     20 C         -7.167232   2.613032   6.759158 C.ar        1 UNL1     -0.0198
     21 C         -8.014122   2.711001   7.848656 C.ar        1 UNL1     0.1169
     22 C         -7.697272   2.091878   9.050792 C.ar        1 UNL1     -0.0198
     23 C         -6.496777   1.38078   9.165714 C.ar        1 UNL1     -0.0516
     24 O         -9.165332   3.428309   7.705173 O.3        1 UNL1     -0.5068
     25 O         -5.754231   -2.590762   8.247051 O.2        1 UNL1     -0.2917
     26 O         -5.797608   -3.488162   5.705139 O.3        1 UNL1     -0.5058
     27 O         -0.210473   -0.24012   2.539287 O.3        1 UNL1     -0.3648
     28 O         0.255602   -1.943195   -0.607853 O.3        1 UNL1     -0.3841
     29 O         -2.46083   0.366506   -0.237555 O.3        1 UNL1     -0.3863
     30 O         -2.458039   -3.307722   -0.249863 O.3        1 UNL1     -0.3829
     31 H         0.632694   -1.880066   1.779263 H        1 UNL1     0.0937
     32 H         0.0   0.0   0.0 H        1 UNL1     0.0671
     33 H         -1.880988   -1.165846   -1.420526 H        1 UNL1     0.0649
     34 H         -3.847314   -1.828215   0.054949 H        1 UNL1     0.0683
     35 H         -3.191168   -2.972349   2.122479 H        1 UNL1     0.1085
     36 H         -4.823149   -3.009554   3.396747 H        1 UNL1     0.0691
     37 H         -2.754237   0.605061   4.53004 H        1 UNL1     0.0691
     38 H         -3.322395   -1.190153   9.027486 H        1 UNL1     0.0385
     39 H         -4.881899   -0.784991   9.770677 H        1 UNL1     0.0385
     40 H         -3.639469   1.224118   8.88231 H        1 UNL1     0.0789
     41 H         -5.306445   1.862869   6.012072 H        1 UNL1     0.0623
     42 H         -7.432378   3.089733   5.818698 H        1 UNL1     0.0654
     43 H         -8.36023   2.149561   9.905818 H        1 UNL1     0.0654
     44 H         -6.286168   0.900624   10.116471 H        1 UNL1     0.0623
     45 H         -8.930149   4.349868   7.50989 H        1 UNL1     0.2921
     46 H         -5.399467   -4.020366   6.412001 H        1 UNL1     0.2922
     47 H         0.520175   0.326712   2.255183 H        1 UNL1     0.2126
     48 H         1.196937   -1.857422   -0.362365 H        1 UNL1     0.2101
     49 H         -2.029581   0.957719   -0.874961 H        1 UNL1     0.2100
     50 H         -2.702946   -3.3046   -1.1984 H        1 UNL1     0.2102
@<TRIPOS>BOND
     1     1     2    1
     2     1     6    1
     3     2     3    1
     4     3     4    1
     5     3    29    1
     6     3    33    1
     7     4     5    1
     8     5     6    1
     9     5     7    1
    10     5    35    1
    11     7     8    1
    12     8     9   ar
    13     8    13   ar
    14     9    10   ar
    15     9    36    1
    16    10    11   ar
    17    10    26    1
    18    11    12   ar
    19    11    14    1
    20    12    13   ar
    21    12    17    1
    22    13    37    1
    23    14    15    1
    24    14    25    2
    25    15    16    1
    26    15    38    1
    27    15    39    1
    28    16    17    1
    29    16    18    1
    30    16    40    1
    31    18    19   ar
    32    18    23   ar
    33    19    20   ar
    34    19    41    1
    35    20    21   ar
    36    20    42    1
    37    21    22   ar
    38    21    24    1
    39    22    23   ar
    40    22    43    1
    41    23    44    1
    42    24    45    1
    43    26    46    1
    44    27    47    1
    45    28    48    1
    46    29    49    1
    47    30    50    1
    48     1    31    1
    49     1    27    1
    50     2    32    1
    51     2    28    1
    52     4    34    1
    53     4    30    1
