@<TRIPOS>MOLECULE
*****
 50 53 0 0 0
SMALL
GASTEIGER

@<TRIPOS>ATOM
     1 C         -0.33685   -1.331119   1.698664 C.3        1 UNL1     0.1889
     2 C         -0.464871   -0.974755   0.193155 C.3        1 UNL1     0.1342
     3 C         -1.905088   -0.957845   -0.341591 C.3        1 UNL1     0.1174
     4 C         -2.794503   -2.016475   0.31519 C.3        1 UNL1     0.1456
     5 C         -2.644625   -2.04535   1.847204 C.3        1 UNL1     0.2326
     6 O         -1.280609   -2.267241   2.198052 O.3        1 UNL1     -0.3076
     7 O         -3.217673   -0.898367   2.500937 O.3        1 UNL1     -0.4605
     8 C         -3.729498   -1.115374   3.767614 C.ar        1 UNL1     0.1310
     9 C         -4.833727   -0.456798   4.319209 C.ar        1 UNL1     0.0226
     10 C         -5.287404   -0.759861   5.608485 C.ar        1 UNL1     0.1343
     11 C         -4.661776   -1.746708   6.369119 C.ar        1 UNL1     0.1007
     12 C         -3.533032   -2.382338   5.845003 C.ar        1 UNL1     0.1389
     13 C         -3.075452   -2.075562   4.54965 C.ar        1 UNL1     0.0229
     14 C         -5.150222   -2.165773   7.70327 C.2        1 UNL1     0.1740
     15 C         -4.496867   -3.38746   8.2796 C.3        1 UNL1     0.0520
     16 C         -3.006614   -3.326377   7.974034 C.3        1 UNL1     0.1322
     17 O         -2.776543   -3.290876   6.548244 O.3        1 UNL1     -0.4828
     18 C         -2.25924   -2.249444   8.764206 C.ar        1 UNL1     -0.0067
     19 C         -1.387269   -1.372906   8.086298 C.ar        1 UNL1     -0.0516
     20 C         -0.652523   -0.407732   8.785262 C.ar        1 UNL1     -0.0198
     21 C         -0.775085   -0.314053   10.160046 C.ar        1 UNL1     0.1169
     22 C         -1.650791   -1.14086   10.851688 C.ar        1 UNL1     -0.0198
     23 C         -2.399507   -2.093837   10.150751 C.ar        1 UNL1     -0.0516
     24 O         -0.01527   0.612814   10.811199 O.3        1 UNL1     -0.5068
     25 O         -6.081724   -1.61638   8.28547 O.2        1 UNL1     -0.2917
     26 O         -6.368974   -0.080532   6.088384 O.3        1 UNL1     -0.5058
     27 O         -0.229879   -0.194892   2.541477 O.3        1 UNL1     -0.3648
     28 O         0.26427   -1.953252   -0.570784 O.3        1 UNL1     -0.3841
     29 O         -2.459626   0.356875   -0.263293 O.3        1 UNL1     -0.3863
     30 O         -2.449339   -3.316966   -0.209476 O.3        1 UNL1     -0.3829
     31 H         0.622518   -1.846414   1.817678 H        1 UNL1     0.0937
     32 H         0.0   0.0   0.0 H        1 UNL1     0.0671
     33 H         -1.867448   -1.19524   -1.413947 H        1 UNL1     0.0649
     34 H         -3.843937   -1.835217   0.057827 H        1 UNL1     0.0683
     35 H         -3.201709   -2.940588   2.15066 H        1 UNL1     0.1085
     36 H         -5.397113   0.280291   3.75759 H        1 UNL1     0.0691
     37 H         -2.193803   -2.583789   4.16508 H        1 UNL1     0.0691
     38 H         -4.960368   -4.262697   7.811997 H        1 UNL1     0.0385
     39 H         -4.697574   -3.428032   9.355634 H        1 UNL1     0.0385
     40 H         -2.570192   -4.280595   8.29888 H        1 UNL1     0.0789
     41 H         -1.266528   -1.432276   7.008546 H        1 UNL1     0.0623
     42 H         0.025529   0.254474   8.25259 H        1 UNL1     0.0654
     43 H         -1.765745   -1.065966   11.926438 H        1 UNL1     0.0654
     44 H         -3.08183   -2.716054   10.721827 H        1 UNL1     0.0623
     45 H         0.920586   0.406792   10.654851 H        1 UNL1     0.2921
     46 H         -7.059428   -0.711795   6.345662 H        1 UNL1     0.2922
     47 H         0.512968   0.359155   2.263863 H        1 UNL1     0.2126
     48 H         1.19981   -1.878431   -0.300787 H        1 UNL1     0.2101
     49 H         -2.018861   0.939534   -0.902064 H        1 UNL1     0.2100
     50 H         -2.681588   -3.329504   -1.161114 H        1 UNL1     0.2102
@<TRIPOS>BOND
     1     1     2    1
     2     1     6    1
     3     2     3    1
     4     3     4    1
     5     3    29    1
     6     3    33    1
     7     4     5    1
     8     5     6    1
     9     5     7    1
    10     5    35    1
    11     7     8    1
    12     8     9   ar
    13     8    13   ar
    14     9    10   ar
    15     9    36    1
    16    10    11   ar
    17    10    26    1
    18    11    12   ar
    19    11    14    1
    20    12    13   ar
    21    12    17    1
    22    13    37    1
    23    14    15    1
    24    14    25    2
    25    15    16    1
    26    15    38    1
    27    15    39    1
    28    16    17    1
    29    16    18    1
    30    16    40    1
    31    18    19   ar
    32    18    23   ar
    33    19    20   ar
    34    19    41    1
    35    20    21   ar
    36    20    42    1
    37    21    22   ar
    38    21    24    1
    39    22    23   ar
    40    22    43    1
    41    23    44    1
    42    24    45    1
    43    26    46    1
    44    27    47    1
    45    28    48    1
    46    29    49    1
    47    30    50    1
    48     1    31    1
    49     1    27    1
    50     2    32    1
    51     2    28    1
    52     4    34    1
    53     4    30    1
