@<TRIPOS>MOLECULE
*****
 50 53 0 0 0
SMALL
GASTEIGER

@<TRIPOS>ATOM
     1 C         -0.345163   -1.33614   1.693044 C.3        1 UNL1     0.1889
     2 C         -0.468872   -0.973726   0.18862 C.3        1 UNL1     0.1342
     3 C         -1.907954   -0.949472   -0.348896 C.3        1 UNL1     0.1174
     4 C         -2.802598   -2.007209   0.302198 C.3        1 UNL1     0.1456
     5 C         -2.655866   -2.042317   1.834386 C.3        1 UNL1     0.2326
     6 O         -1.293383   -2.270585   2.187094 O.3        1 UNL1     -0.3076
     7 O         -3.225943   -0.895638   2.491243 O.3        1 UNL1     -0.4605
     8 C         -3.748724   -1.117248   3.752638 C.ar        1 UNL1     0.1310
     9 C         -4.578096   -2.185825   4.109832 C.ar        1 UNL1     0.0226
     10 C         -5.043876   -2.333319   5.421776 C.ar        1 UNL1     0.1343
     11 C         -4.671829   -1.428092   6.414743 C.ar        1 UNL1     0.1007
     12 C         -3.877452   -0.334126   6.061207 C.ar        1 UNL1     0.1389
     13 C         -3.411403   -0.184583   4.741409 C.ar        1 UNL1     0.0229
     14 C         -5.0663   -1.582617   7.834133 C.2        1 UNL1     0.1740
     15 C         -4.397104   -0.648771   8.799358 C.3        1 UNL1     0.0520
     16 C         -4.309516   0.728091   8.155512 C.3        1 UNL1     0.1322
     17 O         -3.540733   0.67479   6.933546 O.3        1 UNL1     -0.4828
     18 C         -5.661228   1.434049   8.024279 C.ar        1 UNL1     -0.0067
     19 C         -6.016749   2.026319   6.795038 C.ar        1 UNL1     -0.0516
     20 C         -7.224421   2.720455   6.654801 C.ar        1 UNL1     -0.0198
     21 C         -8.079864   2.835432   7.735923 C.ar        1 UNL1     0.1169
     22 C         -7.77297   2.234483   8.949807 C.ar        1 UNL1     -0.0198
     23 C         -6.573895   1.524566   9.085053 C.ar        1 UNL1     -0.0516
     24 O         -9.229424   3.551098   7.572416 O.3        1 UNL1     -0.5068
     25 O         -5.826707   -2.460882   8.232775 O.2        1 UNL1     -0.2917
     26 O         -5.850508   -3.396794   5.704529 O.3        1 UNL1     -0.5058
     27 O         -0.235642   -0.20345   2.540278 O.3        1 UNL1     -0.3648
     28 O         0.25814   -1.952094   -0.57751 O.3        1 UNL1     -0.3841
     29 O         -2.457756   0.367004   -0.26681 O.3        1 UNL1     -0.3863
     30 O         -2.461229   -3.307024   -0.226611 O.3        1 UNL1     -0.3829
     31 H         0.612045   -1.855441   1.812034 H        1 UNL1     0.0937
     32 H         0.0   0.0   0.0 H        1 UNL1     0.0671
     33 H         -1.86907   -1.183031   -1.422049 H        1 UNL1     0.0649
     34 H         -3.850838   -1.821092   0.043444 H        1 UNL1     0.0683
     35 H         -3.216874   -2.936593   2.133419 H        1 UNL1     0.1085
     36 H         -4.857449   -2.953857   3.396944 H        1 UNL1     0.0691
     37 H         -2.795206   0.67645   4.491577 H        1 UNL1     0.0691
     38 H         -3.400215   -1.049886   9.011129 H        1 UNL1     0.0385
     39 H         -4.965298   -0.632631   9.735666 H        1 UNL1     0.0385
     40 H         -3.714532   1.36207   8.826768 H        1 UNL1     0.0789
     41 H         -5.35826   1.958018   5.934005 H        1 UNL1     0.0623
     42 H         -7.481781   3.182949   5.705129 H        1 UNL1     0.0654
     43 H         -8.442653   2.305514   9.798565 H        1 UNL1     0.0654
     44 H         -6.371153   1.058803   10.044639 H        1 UNL1     0.0623
     45 H         -8.992209   4.464238   7.343027 H        1 UNL1     0.2921
     46 H         -5.45834   -3.918407   6.422537 H        1 UNL1     0.2922
     47 H         0.508966   0.349567   2.26534 H        1 UNL1     0.2126
     48 H         1.193863   -1.879811   -0.307455 H        1 UNL1     0.2101
     49 H         -2.019285   0.948353   -0.908348 H        1 UNL1     0.2100
     50 H         -2.69687   -3.317074   -1.177445 H        1 UNL1     0.2102
@<TRIPOS>BOND
     1     1     2    1
     2     1     6    1
     3     2     3    1
     4     3     4    1
     5     3    29    1
     6     3    33    1
     7     4     5    1
     8     5     6    1
     9     5     7    1
    10     5    35    1
    11     7     8    1
    12     8     9   ar
    13     8    13   ar
    14     9    10   ar
    15     9    36    1
    16    10    11   ar
    17    10    26    1
    18    11    12   ar
    19    11    14    1
    20    12    13   ar
    21    12    17    1
    22    13    37    1
    23    14    15    1
    24    14    25    2
    25    15    16    1
    26    15    38    1
    27    15    39    1
    28    16    17    1
    29    16    18    1
    30    16    40    1
    31    18    19   ar
    32    18    23   ar
    33    19    20   ar
    34    19    41    1
    35    20    21   ar
    36    20    42    1
    37    21    22   ar
    38    21    24    1
    39    22    23   ar
    40    22    43    1
    41    23    44    1
    42    24    45    1
    43    26    46    1
    44    27    47    1
    45    28    48    1
    46    29    49    1
    47    30    50    1
    48     1    31    1
    49     1    27    1
    50     2    32    1
    51     2    28    1
    52     4    34    1
    53     4    30    1
