@<TRIPOS>MOLECULE
*****
 50 53 0 0 0
SMALL
GASTEIGER

@<TRIPOS>ATOM
     1 C         -0.575688   -1.415631   1.560569 C.3        1 UNL1     0.1889
     2 C         -0.581756   -0.926002   0.087421 C.3        1 UNL1     0.1342
     3 C         -1.980097   -0.697248   -0.506532 C.3        1 UNL1     0.1174
     4 C         -3.017384   -1.694075   0.01643 C.3        1 UNL1     0.1456
     5 C         -2.954031   -1.864259   1.545282 C.3        1 UNL1     0.2326
     6 O         -1.644612   -2.272088   1.935108 O.3        1 UNL1     -0.3076
     7 O         -3.427948   -0.714767   2.270121 O.3        1 UNL1     -0.4605
     8 C         -4.028151   -0.972166   3.48956 C.ar        1 UNL1     0.1310
     9 C         -4.982028   -1.967128   3.729283 C.ar        1 UNL1     0.0226
     10 C         -5.520014   -2.161141   5.007106 C.ar        1 UNL1     0.1343
     11 C         -5.099151   -1.379715   6.082321 C.ar        1 UNL1     0.1007
     12 C         -4.177494   -0.356023   5.846975 C.ar        1 UNL1     0.1389
     13 C         -3.638666   -0.159418   4.561502 C.ar        1 UNL1     0.0229
     14 C         -5.571941   -1.596628   7.469251 C.2        1 UNL1     0.1740
     15 C         -4.851618   -0.817362   8.530114 C.3        1 UNL1     0.0520
     16 C         -4.588657   0.586184   8.002037 C.3        1 UNL1     0.1322
     17 O         -3.775191   0.541145   6.809009 O.3        1 UNL1     -0.4828
     18 C         -5.850087   1.444123   7.877704 C.ar        1 UNL1     -0.0067
     19 C         -6.084242   2.162862   6.687409 C.ar        1 UNL1     -0.0516
     20 C         -7.203452   2.993953   6.558493 C.ar        1 UNL1     -0.0198
     21 C         -8.090022   3.120255   7.612945 C.ar        1 UNL1     0.1169
     22 C         -7.904394   2.399411   8.785449 C.ar        1 UNL1     -0.0198
     23 C         -6.795176   1.554   8.907814 C.ar        1 UNL1     -0.0516
     24 O         -9.14816   3.968061   7.464721 O.3        1 UNL1     -0.5068
     25 O         -6.438924   -2.413672   7.768021 O.2        1 UNL1     -0.2917
     26 O         -6.447378   -3.14793   5.173927 O.3        1 UNL1     -0.5058
     27 O         -0.386275   -0.371758   2.502503 O.3        1 UNL1     -0.3648
     28 O         0.071978   -1.918087   -0.725663 O.3        1 UNL1     -0.3841
     29 O         -2.385856   0.662696   -0.339069 O.3        1 UNL1     -0.3863
     30 O         -2.793829   -2.979265   -0.603246 O.3        1 UNL1     -0.3829
     31 H         0.311517   -2.047698   1.676489 H        1 UNL1     0.0937
     32 H         0.0   0.0   0.0 H        1 UNL1     0.0671
     33 H         -1.912132   -0.849805   -1.59273 H        1 UNL1     0.0649
     34 H         -4.024295   -1.370886   -0.270067 H        1 UNL1     0.0683
     35 H         -3.624197   -2.709682   1.745323 H        1 UNL1     0.1085
     36 H         -5.308932   -2.643883   2.947453 H        1 UNL1     0.0691
     37 H         -2.923521   0.645152   4.40425 H        1 UNL1     0.0691
     38 H         -3.913803   -1.340301   8.745901 H        1 UNL1     0.0385
     39 H         -5.456823   -0.809623   9.443047 H        1 UNL1     0.0385
     40 H         -3.960637   1.098575   8.743364 H        1 UNL1     0.0789
     41 H         -5.39833   2.087837   5.848632 H        1 UNL1     0.0623
     42 H         -7.366641   3.552208   5.639944 H        1 UNL1     0.0654
     43 H         -8.600575   2.479297   9.611802 H        1 UNL1     0.0654
     44 H         -6.687038   0.997752   9.833956 H        1 UNL1     0.0623
     45 H         -8.804823   4.864331   7.317971 H        1 UNL1     0.2921
     46 H         -6.146059   -3.762101   5.861977 H        1 UNL1     0.2922
     47 H         0.427527   0.112967   2.305963 H        1 UNL1     0.2126
     48 H         0.994161   -1.975487   -0.409408 H        1 UNL1     0.2101
     49 H         -1.85407   1.238592   -0.911206 H        1 UNL1     0.2100
     50 H         -2.980154   -2.888807   -1.56075 H        1 UNL1     0.2102
@<TRIPOS>BOND
     1     1     2    1
     2     1     6    1
     3     2     3    1
     4     3     4    1
     5     3    29    1
     6     3    33    1
     7     4     5    1
     8     5     6    1
     9     5     7    1
    10     5    35    1
    11     7     8    1
    12     8     9   ar
    13     8    13   ar
    14     9    10   ar
    15     9    36    1
    16    10    11   ar
    17    10    26    1
    18    11    12   ar
    19    11    14    1
    20    12    13   ar
    21    12    17    1
    22    13    37    1
    23    14    15    1
    24    14    25    2
    25    15    16    1
    26    15    38    1
    27    15    39    1
    28    16    17    1
    29    16    18    1
    30    16    40    1
    31    18    19   ar
    32    18    23   ar
    33    19    20   ar
    34    19    41    1
    35    20    21   ar
    36    20    42    1
    37    21    22   ar
    38    21    24    1
    39    22    23   ar
    40    22    43    1
    41    23    44    1
    42    24    45    1
    43    26    46    1
    44    27    47    1
    45    28    48    1
    46    29    49    1
    47    30    50    1
    48     1    31    1
    49     1    27    1
    50     2    32    1
    51     2    28    1
    52     4    34    1
    53     4    30    1
