@<TRIPOS>MOLECULE
*****
 50 53 0 0 0
SMALL
GASTEIGER

@<TRIPOS>ATOM
     1 C         -0.35684   0.028519   2.154682 C.3        1 UNL1     0.1889
     2 C         -0.324919   0.717323   0.76383 C.3        1 UNL1     0.1342
     3 C         0.564644   1.967665   0.687739 C.3        1 UNL1     0.1174
     4 C         0.565689   2.775325   1.988047 C.3        1 UNL1     0.1456
     5 C         0.753434   1.889279   3.233052 C.3        1 UNL1     0.2326
     6 O         -0.264731   0.892192   3.278061 O.3        1 UNL1     -0.3076
     7 O         2.081283   1.348079   3.356502 O.3        1 UNL1     -0.4605
     8 C         2.178017   -0.031664   3.334646 C.ar        1 UNL1     0.1310
     9 C         1.099109   -0.920612   3.389707 C.ar        1 UNL1     0.0226
     10 C         1.2993   -2.305436   3.344014 C.ar        1 UNL1     0.1343
     11 C         2.582912   -2.834879   3.218034 C.ar        1 UNL1     0.1007
     12 C         3.671224   -1.958439   3.203442 C.ar        1 UNL1     0.1389
     13 C         3.469854   -0.566133   3.252064 C.ar        1 UNL1     0.0229
     14 C         2.845523   -4.286219   3.080916 C.2        1 UNL1     0.1740
     15 C         4.256009   -4.660684   2.731842 C.3        1 UNL1     0.0520
     16 C         5.201478   -3.763917   3.519151 C.3        1 UNL1     0.1322
     17 O         4.982428   -2.374195   3.190884 O.3        1 UNL1     -0.4828
     18 C         5.229306   -4.064531   5.019677 C.ar        1 UNL1     -0.0067
     19 C         6.412217   -4.561277   5.604638 C.ar        1 UNL1     -0.0516
     20 C         6.457466   -4.891223   6.964437 C.ar        1 UNL1     -0.0198
     21 C         5.326961   -4.736257   7.746593 C.ar        1 UNL1     0.1169
     22 C         4.157032   -4.217876   7.206791 C.ar        1 UNL1     -0.0198
     23 C         4.116921   -3.87049   5.851147 C.ar        1 UNL1     -0.0516
     24 O         5.397772   -5.103721   9.058217 O.3        1 UNL1     -0.5068
     25 O         1.968917   -5.142599   3.162536 O.2        1 UNL1     -0.2917
     26 O         0.204876   -3.118044   3.403083 O.3        1 UNL1     -0.5058
     27 O         0.536195   -1.068554   2.262879 O.3        1 UNL1     -0.3648
     28 O         -1.664039   1.123046   0.424933 O.3        1 UNL1     -0.3841
     29 O         1.880588   1.627614   0.246388 O.3        1 UNL1     -0.3863
     30 O         -0.687424   3.483318   2.106977 O.3        1 UNL1     -0.3829
     31 H         -1.350335   -0.421274   2.258285 H        1 UNL1     0.0937
     32 H         0.0   0.0   0.0 H        1 UNL1     0.0671
     33 H         0.155287   2.623428   -0.093364 H        1 UNL1     0.0649
     34 H         1.358964   3.530475   1.958617 H        1 UNL1     0.0683
     35 H         0.569682   2.570918   4.072981 H        1 UNL1     0.1085
     36 H         0.073488   -0.570645   3.431496 H        1 UNL1     0.0691
     37 H         4.333867   0.094804   3.240309 H        1 UNL1     0.0691
     38 H         4.380057   -4.515217   1.653427 H        1 UNL1     0.0385
     39 H         4.411035   -5.722023   2.953889 H        1 UNL1     0.0385
     40 H         6.218849   -3.973342   3.161914 H        1 UNL1     0.0789
     41 H         7.310385   -4.700614   5.010054 H        1 UNL1     0.0623
     42 H         7.372103   -5.284579   7.401153 H        1 UNL1     0.0654
     43 H         3.270382   -4.078298   7.813652 H        1 UNL1     0.0654
     44 H         3.189505   -3.458424   5.465212 H        1 UNL1     0.0623
     45 H         6.330168   -5.250905   9.285574 H        1 UNL1     0.2921
     46 H         -0.363789   -2.951203   2.63484 H        1 UNL1     0.2922
     47 H         0.106872   -1.806072   2.718521 H        1 UNL1     0.2126
     48 H         -1.799016   2.003837   0.824585 H        1 UNL1     0.2101
     49 H         1.885144   1.508408   -0.716713 H        1 UNL1     0.2100
     50 H         -0.980817   3.422375   3.039672 H        1 UNL1     0.2102
@<TRIPOS>BOND
     1     1     2    1
     2     1     6    1
     3     2     3    1
     4     3     4    1
     5     3    29    1
     6     3    33    1
     7     4     5    1
     8     5     6    1
     9     5     7    1
    10     5    35    1
    11     7     8    1
    12     8     9   ar
    13     8    13   ar
    14     9    10   ar
    15     9    36    1
    16    10    11   ar
    17    10    26    1
    18    11    12   ar
    19    11    14    1
    20    12    13   ar
    21    12    17    1
    22    13    37    1
    23    14    15    1
    24    14    25    2
    25    15    16    1
    26    15    38    1
    27    15    39    1
    28    16    17    1
    29    16    18    1
    30    16    40    1
    31    18    19   ar
    32    18    23   ar
    33    19    20   ar
    34    19    41    1
    35    20    21   ar
    36    20    42    1
    37    21    22   ar
    38    21    24    1
    39    22    23   ar
    40    22    43    1
    41    23    44    1
    42    24    45    1
    43    26    46    1
    44    27    47    1
    45    28    48    1
    46    29    49    1
    47    30    50    1
    48     1    31    1
    49     1    27    1
    50     2    32    1
    51     2    28    1
    52     4    34    1
    53     4    30    1
