@<TRIPOS>MOLECULE
*****
 50 53 0 0 0
SMALL
GASTEIGER

@<TRIPOS>ATOM
     1 C         -0.812569   -1.744099   1.033757 C.3        1 UNL1     0.1889
     2 C         -0.732532   -0.793955   -0.191297 C.3        1 UNL1     0.1342
     3 C         -2.069939   -0.154989   -0.595689 C.3        1 UNL1     0.1174
     4 C         -3.263913   -1.086957   -0.374379 C.3        1 UNL1     0.1456
     5 C         -3.232614   -1.768755   1.00567 C.3        1 UNL1     0.2326
     6 O         -2.013375   -2.490835   1.163544 O.3        1 UNL1     -0.3076
     7 O         -3.502514   -0.868807   2.095886 O.3        1 UNL1     -0.4605
     8 C         -4.149645   -1.417172   3.18861 C.ar        1 UNL1     0.1310
     9 C         -5.428029   -1.985299   3.172254 C.ar        1 UNL1     0.0226
     10 C         -5.992048   -2.531752   4.331208 C.ar        1 UNL1     0.1343
     11 C         -5.281039   -2.544722   5.530432 C.ar        1 UNL1     0.1007
     12 C         -4.020122   -1.94356   5.568837 C.ar        1 UNL1     0.1389
     13 C         -3.454301   -1.391808   4.404 C.ar        1 UNL1     0.0229
     14 C         -5.794612   -3.183522   6.764259 C.2        1 UNL1     0.1740
     15 C         -4.811814   -3.300951   7.89203 C.3        1 UNL1     0.0520
     16 C         -3.995427   -2.017412   7.955265 C.3        1 UNL1     0.1322
     17 O         -3.278777   -1.80409   6.719151 O.3        1 UNL1     -0.4828
     18 C         -4.790778   -0.804775   8.444809 C.ar        1 UNL1     -0.0067
     19 C         -4.113221   0.398253   8.730905 C.ar        1 UNL1     -0.0516
     20 C         -4.803502   1.511366   9.225328 C.ar        1 UNL1     -0.0198
     21 C         -6.167149   1.432013   9.444411 C.ar        1 UNL1     0.1169
     22 C         -6.867632   0.271876   9.140692 C.ar        1 UNL1     -0.0198
     23 C         -6.180593   -0.835399   8.628856 C.ar        1 UNL1     -0.0516
     24 O         -6.799318   2.523982   9.962452 O.3        1 UNL1     -0.5068
     25 O         -6.920126   -3.666221   6.857562 O.2        1 UNL1     -0.2917
     26 O         -7.243256   -3.069523   4.248335 O.3        1 UNL1     -0.5058
     27 O         -0.447469   -1.12285   2.255862 O.3        1 UNL1     -0.3648
     28 O         -0.258305   -1.547437   -1.322703 O.3        1 UNL1     -0.3841
     29 O         -2.235819   1.116382   0.035367 O.3        1 UNL1     -0.3863
     30 O         -3.264117   -2.107451   -1.396281 O.3        1 UNL1     -0.3829
     31 H         -0.047507   -2.513601   0.883334 H        1 UNL1     0.0937
     32 H         0.0   0.0   0.0 H        1 UNL1     0.0671
     33 H         -2.027946   0.057337   -1.673127 H        1 UNL1     0.0649
     34 H         -4.199845   -0.527267   -0.480111 H        1 UNL1     0.0683
     35 H         -4.038505   -2.511421   0.952143 H        1 UNL1     0.1085
     36 H         -6.008856   -2.056223   2.259166 H        1 UNL1     0.0691
     37 H         -2.471559   -0.928657   4.460602 H        1 UNL1     0.0691
     38 H         -4.172489   -4.165892   7.685469 H        1 UNL1     0.0385
     39 H         -5.355506   -3.492156   8.82349 H        1 UNL1     0.0385
     40 H         -3.208383   -2.171025   8.70592 H        1 UNL1     0.0789
     41 H         -3.041532   0.483039   8.576161 H        1 UNL1     0.0623
     42 H         -4.267831   2.429563   9.453325 H        1 UNL1     0.0654
     43 H         -7.938008   0.203832   9.294236 H        1 UNL1     0.0654
     44 H         -6.761254   -1.721931   8.392769 H        1 UNL1     0.0623
     45 H         -6.135697   3.087049   10.392892 H        1 UNL1     0.2921
     46 H         -7.303684   -3.627797   3.457076 H        1 UNL1     0.2922
     47 H         -1.220602   -0.710592   2.665945 H        1 UNL1     0.2126
     48 H         -0.803821   -1.278084   -2.086636 H        1 UNL1     0.2101
     49 H         -2.793503   1.023069   0.824084 H        1 UNL1     0.2100
     50 H         -2.915899   -2.932317   -0.998722 H        1 UNL1     0.2102
@<TRIPOS>BOND
     1     1     2    1
     2     1     6    1
     3     2     3    1
     4     3     4    1
     5     3    29    1
     6     3    33    1
     7     4     5    1
     8     5     6    1
     9     5     7    1
    10     5    35    1
    11     7     8    1
    12     8     9   ar
    13     8    13   ar
    14     9    10   ar
    15     9    36    1
    16    10    11   ar
    17    10    26    1
    18    11    12   ar
    19    11    14    1
    20    12    13   ar
    21    12    17    1
    22    13    37    1
    23    14    15    1
    24    14    25    2
    25    15    16    1
    26    15    38    1
    27    15    39    1
    28    16    17    1
    29    16    18    1
    30    16    40    1
    31    18    19   ar
    32    18    23   ar
    33    19    20   ar
    34    19    41    1
    35    20    21   ar
    36    20    42    1
    37    21    22   ar
    38    21    24    1
    39    22    23   ar
    40    22    43    1
    41    23    44    1
    42    24    45    1
    43    26    46    1
    44    27    47    1
    45    28    48    1
    46    29    49    1
    47    30    50    1
    48     1    31    1
    49     1    27    1
    50     2    32    1
    51     2    28    1
    52     4    34    1
    53     4    30    1
