@<TRIPOS>MOLECULE
*****
 50 53 0 0 0
SMALL
GASTEIGER

@<TRIPOS>ATOM
     1 C         -0.34079   -1.335455   1.694469 C.3        1 UNL1     0.1889
     2 C         -0.464591   -0.975619   0.189434 C.3        1 UNL1     0.1342
     3 C         -1.903206   -0.958694   -0.349608 C.3        1 UNL1     0.1174
     4 C         -2.793661   -2.019662   0.301969 C.3        1 UNL1     0.1456
     5 C         -2.648372   -2.052055   1.834355 C.3        1 UNL1     0.2326
     6 O         -1.285224   -2.273589   2.188782 O.3        1 UNL1     -0.3076
     7 O         -3.224396   -0.907133   2.489085 O.3        1 UNL1     -0.4605
     8 C         -3.739842   -1.127604   3.753694 C.ar        1 UNL1     0.1310
     9 C         -4.559316   -2.201087   4.118932 C.ar        1 UNL1     0.0226
     10 C         -5.018113   -2.346797   5.433534 C.ar        1 UNL1     0.1343
     11 C         -4.648689   -1.434657   6.42114 C.ar        1 UNL1     0.1007
     12 C         -3.864389   -0.336041   6.059612 C.ar        1 UNL1     0.1389
     13 C         -3.405374   -0.188313   4.737148 C.ar        1 UNL1     0.0229
     14 C         -5.035648   -1.586405   7.842896 C.2        1 UNL1     0.1740
     15 C         -4.369432   -0.643465   8.801315 C.3        1 UNL1     0.0520
     16 C         -4.295374   0.731382   8.151492 C.3        1 UNL1     0.1322
     17 O         -3.531631   0.679016   6.926329 O.3        1 UNL1     -0.4828
     18 C         -5.653084   1.426325   8.023432 C.ar        1 UNL1     -0.0067
     19 C         -6.024907   1.99775   6.789157 C.ar        1 UNL1     -0.0516
     20 C         -7.238598   2.681692   6.650813 C.ar        1 UNL1     -0.0198
     21 C         -8.083927   2.807179   7.738701 C.ar        1 UNL1     0.1169
     22 C         -7.760823   2.226524   8.958243 C.ar        1 UNL1     -0.0198
     23 C         -6.55567   1.526671   9.091919 C.ar        1 UNL1     -0.0516
     24 O         -9.23989   3.512684   7.576182 O.3        1 UNL1     -0.5068
     25 O         -5.787451   -2.468881   8.248499 O.2        1 UNL1     -0.2917
     26 O         -5.815218   -3.415308   5.72421 O.3        1 UNL1     -0.5058
     27 O         -0.237359   -0.201146   2.540302 O.3        1 UNL1     -0.3648
     28 O         0.267709   -1.951655   -0.574631 O.3        1 UNL1     -0.3841
     29 O         -2.459136   0.355351   -0.269854 O.3        1 UNL1     -0.3863
     30 O         -2.445773   -3.318598   -0.224747 O.3        1 UNL1     -0.3829
     31 H         0.618668   -1.850193   1.815148 H        1 UNL1     0.0937
     32 H         0.0   0.0   0.0 H        1 UNL1     0.0671
     33 H         -1.862128   -1.193501   -1.422407 H        1 UNL1     0.0649
     34 H         -3.842474   -1.838709   0.041877 H        1 UNL1     0.0683
     35 H         -3.205578   -2.948499   2.134 H        1 UNL1     0.1085
     36 H         -4.83587   -2.974172   3.410429 H        1 UNL1     0.0691
     37 H         -2.796982   0.676426   4.481066 H        1 UNL1     0.0691
     38 H         -3.368535   -1.035989   9.010258 H        1 UNL1     0.0385
     39 H         -4.933574   -0.627879   9.740079 H        1 UNL1     0.0385
     40 H         -3.702347   1.372689   8.817498 H        1 UNL1     0.0789
     41 H         -5.37463   1.920924   5.922618 H        1 UNL1     0.0623
     42 H         -7.508587   3.128195   5.697003 H        1 UNL1     0.0654
     43 H         -8.422435   2.305821   9.812579 H        1 UNL1     0.0654
     44 H         -6.340174   1.076686   10.056242 H        1 UNL1     0.0623
     45 H         -9.011176   4.423839   7.330815 H        1 UNL1     0.2921
     46 H         -5.415837   -3.930925   6.442574 H        1 UNL1     0.2922
     47 H         0.504987   0.35492   2.265398 H        1 UNL1     0.2126
     48 H         1.202365   -1.87666   -0.301638 H        1 UNL1     0.2101
     49 H         -2.01886   0.93923   -0.907848 H        1 UNL1     0.2100
     50 H         -2.680371   -3.330998   -1.175811 H        1 UNL1     0.2102
@<TRIPOS>BOND
     1     1     2    1
     2     1     6    1
     3     2     3    1
     4     3     4    1
     5     3    29    1
     6     3    33    1
     7     4     5    1
     8     5     6    1
     9     5     7    1
    10     5    35    1
    11     7     8    1
    12     8     9   ar
    13     8    13   ar
    14     9    10   ar
    15     9    36    1
    16    10    11   ar
    17    10    26    1
    18    11    12   ar
    19    11    14    1
    20    12    13   ar
    21    12    17    1
    22    13    37    1
    23    14    15    1
    24    14    25    2
    25    15    16    1
    26    15    38    1
    27    15    39    1
    28    16    17    1
    29    16    18    1
    30    16    40    1
    31    18    19   ar
    32    18    23   ar
    33    19    20   ar
    34    19    41    1
    35    20    21   ar
    36    20    42    1
    37    21    22   ar
    38    21    24    1
    39    22    23   ar
    40    22    43    1
    41    23    44    1
    42    24    45    1
    43    26    46    1
    44    27    47    1
    45    28    48    1
    46    29    49    1
    47    30    50    1
    48     1    31    1
    49     1    27    1
    50     2    32    1
    51     2    28    1
    52     4    34    1
    53     4    30    1
