@<TRIPOS>MOLECULE
*****
 50 53 0 0 0
SMALL
GASTEIGER

@<TRIPOS>ATOM
     1 C         -0.339676   -1.332764   1.69681 C.3        1 UNL1     0.1889
     2 C         -0.465855   -0.974597   0.191574 C.3        1 UNL1     0.1342
     3 C         -1.905506   -0.955922   -0.344638 C.3        1 UNL1     0.1174
     4 C         -2.796451   -2.014574   0.310029 C.3        1 UNL1     0.1456
     5 C         -2.648178   -2.0453   1.842163 C.3        1 UNL1     0.2326
     6 O         -1.284704   -2.268688   2.194166 O.3        1 UNL1     -0.3076
     7 O         -3.220976   -0.898594   2.4966 O.3        1 UNL1     -0.4605
     8 C         -3.734283   -1.116618   3.762503 C.ar        1 UNL1     0.1310
     9 C         -4.554836   -2.188262   4.130706 C.ar        1 UNL1     0.0226
     10 C         -5.011269   -2.331559   5.446395 C.ar        1 UNL1     0.1343
     11 C         -4.638353   -1.418811   6.432126 C.ar        1 UNL1     0.1007
     12 C         -3.852925   -0.32197   6.067671 C.ar        1 UNL1     0.1389
     13 C         -3.396285   -0.176665   4.744116 C.ar        1 UNL1     0.0229
     14 C         -5.022748   -1.568133   7.854834 C.2        1 UNL1     0.1740
     15 C         -4.353046   -0.625122   8.810751 C.3        1 UNL1     0.0520
     16 C         -4.277964   0.748786   8.159063 C.3        1 UNL1     0.1322
     17 O         -3.516742   0.693606   6.932456 O.3        1 UNL1     -0.4828
     18 C         -5.634755   1.445856   8.032824 C.ar        1 UNL1     -0.0067
     19 C         -6.008063   2.016366   6.798574 C.ar        1 UNL1     -0.0516
     20 C         -7.220874   2.702179   6.661779 C.ar        1 UNL1     -0.0198
     21 C         -8.063831   2.830447   7.751181 C.ar        1 UNL1     0.1169
     22 C         -7.739287   2.25077   8.970806 C.ar        1 UNL1     -0.0198
     23 C         -6.53505   1.549056   9.10297 C.ar        1 UNL1     -0.0516
     24 O         -9.218925   3.537696   7.590071 O.3        1 UNL1     -0.5068
     25 O         -5.775228   -2.448835   8.263029 O.2        1 UNL1     -0.2917
     26 O         -5.809593   -3.398362   5.739986 O.3        1 UNL1     -0.5058
     27 O         -0.23266   -0.197577   2.541017 O.3        1 UNL1     -0.3648
     28 O         0.263285   -1.952819   -0.572718 O.3        1 UNL1     -0.3841
     29 O         -2.459065   0.359156   -0.265426 O.3        1 UNL1     -0.3863
     30 O         -2.451793   -3.31475   -0.21575 O.3        1 UNL1     -0.3829
     31 H         0.619153   -1.848967   1.816232 H        1 UNL1     0.0937
     32 H         0.0   0.0   0.0 H        1 UNL1     0.0671
     33 H         -1.86695   -1.192135   -1.417222 H        1 UNL1     0.0649
     34 H         -3.845472   -1.832178   0.051789 H        1 UNL1     0.0683
     35 H         -3.206296   -2.94043   2.144032 H        1 UNL1     0.1085
     36 H         -4.834094   -2.961763   3.423719 H        1 UNL1     0.0691
     37 H         -2.786948   0.686728   4.485748 H        1 UNL1     0.0691
     38 H         -3.352399   -1.019071   9.018202 H        1 UNL1     0.0385
     39 H         -4.915299   -0.607414   9.750611 H        1 UNL1     0.0385
     40 H         -3.68254   1.389924   8.823091 H        1 UNL1     0.0789
     41 H         -5.359636   1.937364   5.930846 H        1 UNL1     0.0623
     42 H         -7.492002   3.147946   5.707948 H        1 UNL1     0.0654
     43 H         -8.399069   2.332248   9.826352 H        1 UNL1     0.0654
     44 H         -6.3184   1.099911   10.067427 H        1 UNL1     0.0623
     45 H         -8.989166   4.448156   7.343112 H        1 UNL1     0.2921
     46 H         -5.409656   -3.913754   6.458201 H        1 UNL1     0.2922
     47 H         0.51092   0.356184   2.264795 H        1 UNL1     0.2126
     48 H         1.198606   -1.879057   -0.301671 H        1 UNL1     0.2101
     49 H         -2.019073   0.941497   -0.905021 H        1 UNL1     0.2100
     50 H         -2.688297   -3.327941   -1.166331 H        1 UNL1     0.2102
@<TRIPOS>BOND
     1     1     2    1
     2     1     6    1
     3     2     3    1
     4     3     4    1
     5     3    29    1
     6     3    33    1
     7     4     5    1
     8     5     6    1
     9     5     7    1
    10     5    35    1
    11     7     8    1
    12     8     9   ar
    13     8    13   ar
    14     9    10   ar
    15     9    36    1
    16    10    11   ar
    17    10    26    1
    18    11    12   ar
    19    11    14    1
    20    12    13   ar
    21    12    17    1
    22    13    37    1
    23    14    15    1
    24    14    25    2
    25    15    16    1
    26    15    38    1
    27    15    39    1
    28    16    17    1
    29    16    18    1
    30    16    40    1
    31    18    19   ar
    32    18    23   ar
    33    19    20   ar
    34    19    41    1
    35    20    21   ar
    36    20    42    1
    37    21    22   ar
    38    21    24    1
    39    22    23   ar
    40    22    43    1
    41    23    44    1
    42    24    45    1
    43    26    46    1
    44    27    47    1
    45    28    48    1
    46    29    49    1
    47    30    50    1
    48     1    31    1
    49     1    27    1
    50     2    32    1
    51     2    28    1
    52     4    34    1
    53     4    30    1
