@<TRIPOS>MOLECULE
*****
 50 53 0 0 0
SMALL
GASTEIGER

@<TRIPOS>ATOM
     1 C         -0.316344   -1.374939   1.667415 C.3        1 UNL1     0.1889
     2 C         -0.45979   -0.980983   0.172704 C.3        1 UNL1     0.1342
     3 C         -1.905053   -0.955639   -0.34791 C.3        1 UNL1     0.1174
     4 C         -2.784699   -2.033729   0.290103 C.3        1 UNL1     0.1456
     5 C         -2.620231   -2.100897   1.819417 C.3        1 UNL1     0.2326
     6 O         -1.252228   -2.326765   2.151711 O.3        1 UNL1     -0.3076
     7 O         -3.190862   -0.972897   2.507397 O.3        1 UNL1     -0.4605
     8 C         -3.700173   -1.226152   3.768346 C.ar        1 UNL1     0.1310
     9 C         -4.516806   -2.309558   4.109876 C.ar        1 UNL1     0.0226
     10 C         -4.969314   -2.489285   5.422445 C.ar        1 UNL1     0.1343
     11 C         -4.596249   -1.602197   6.431275 C.ar        1 UNL1     0.1007
     12 C         -3.8148   -0.493802   6.094258 C.ar        1 UNL1     0.1389
     13 C         -3.362111   -0.311856   4.773879 C.ar        1 UNL1     0.0229
     14 C         -4.976415   -1.790609   7.850475 C.2        1 UNL1     0.1740
     15 C         -4.30673   -0.871639   8.829538 C.3        1 UNL1     0.0520
     16 C         -4.237149   0.519418   8.21466 C.3        1 UNL1     0.1322
     17 O         -3.479072   0.49921   6.985034 O.3        1 UNL1     -0.4828
     18 C         -5.596172   1.215812   8.110662 C.ar        1 UNL1     -0.0067
     19 C         -5.651332   2.574686   7.738327 C.ar        1 UNL1     -0.0516
     20 C         -6.873859   3.254356   7.679689 C.ar        1 UNL1     -0.0198
     21 C         -8.044866   2.589822   7.997439 C.ar        1 UNL1     0.1169
     22 C         -8.026316   1.242824   8.335213 C.ar        1 UNL1     -0.0198
     23 C         -6.805863   0.558071   8.376027 C.ar        1 UNL1     -0.0516
     24 O         -9.212347   3.294373   7.96587 O.3        1 UNL1     -0.5068
     25 O         -5.72539   -2.684022   8.236915 O.2        1 UNL1     -0.2917
     26 O         -5.76393   -3.565794   5.689461 O.3        1 UNL1     -0.5058
     27 O         -0.205165   -0.260069   2.537756 O.3        1 UNL1     -0.3648
     28 O         0.265324   -1.937204   -0.62263 O.3        1 UNL1     -0.3841
     29 O         -2.463177   0.354696   -0.23107 O.3        1 UNL1     -0.3863
     30 O         -2.440211   -3.319269   -0.270617 O.3        1 UNL1     -0.3829
     31 H         0.645809   -1.889674   1.764309 H        1 UNL1     0.0937
     32 H         0.0   0.0   0.0 H        1 UNL1     0.0671
     33 H         -1.876779   -1.165639   -1.426252 H        1 UNL1     0.0649
     34 H         -3.837117   -1.849733   0.047277 H        1 UNL1     0.0683
     35 H         -3.171449   -3.005513   2.105264 H        1 UNL1     0.1085
     36 H         -4.795846   -3.064646   3.383172 H        1 UNL1     0.0691
     37 H         -2.75583   0.559844   4.537122 H        1 UNL1     0.0691
     38 H         -3.304457   -1.268193   9.023759 H        1 UNL1     0.0385
     39 H         -4.866505   -0.880661   9.770998 H        1 UNL1     0.0385
     40 H         -3.641698   1.144226   8.894053 H        1 UNL1     0.0789
     41 H         -4.745285   3.121106   7.493063 H        1 UNL1     0.0623
     42 H         -6.902058   4.305315   7.402738 H        1 UNL1     0.0654
     43 H         -8.939025   0.708839   8.571289 H        1 UNL1     0.0654
     44 H         -6.829658   -0.496418   8.633577 H        1 UNL1     0.0623
     45 H         -9.177426   3.976877   8.65557 H        1 UNL1     0.2921
     46 H         -5.473714   -3.985335   6.514793 H        1 UNL1     0.2922
     47 H         0.52191   0.312866   2.256745 H        1 UNL1     0.2126
     48 H         1.214514   -1.75667   -0.480584 H        1 UNL1     0.2101
     49 H         -3.005047   0.412194   0.571965 H        1 UNL1     0.2100
     50 H         -2.707319   -3.318454   -1.213148 H        1 UNL1     0.2102
@<TRIPOS>BOND
     1     1     2    1
     2     1     6    1
     3     2     3    1
     4     3     4    1
     5     3    29    1
     6     3    33    1
     7     4     5    1
     8     5     6    1
     9     5     7    1
    10     5    35    1
    11     7     8    1
    12     8     9   ar
    13     8    13   ar
    14     9    10   ar
    15     9    36    1
    16    10    11   ar
    17    10    26    1
    18    11    12   ar
    19    11    14    1
    20    12    13   ar
    21    12    17    1
    22    13    37    1
    23    14    15    1
    24    14    25    2
    25    15    16    1
    26    15    38    1
    27    15    39    1
    28    16    17    1
    29    16    18    1
    30    16    40    1
    31    18    19   ar
    32    18    23   ar
    33    19    20   ar
    34    19    41    1
    35    20    21   ar
    36    20    42    1
    37    21    22   ar
    38    21    24    1
    39    22    23   ar
    40    22    43    1
    41    23    44    1
    42    24    45    1
    43    26    46    1
    44    27    47    1
    45    28    48    1
    46    29    49    1
    47    30    50    1
    48     1    31    1
    49     1    27    1
    50     2    32    1
    51     2    28    1
    52     4    34    1
    53     4    30    1
