@<TRIPOS>MOLECULE
*****
 50 53 0 0 0
SMALL
GASTEIGER

@<TRIPOS>ATOM
     1 C         -0.296824   0.518486   2.100922 C.3        1 UNL1     0.1889
     2 C         0.371278   0.74213   0.717606 C.3        1 UNL1     0.1342
     3 C         1.907   0.699848   0.732854 C.3        1 UNL1     0.1174
     4 C         2.503834   1.275748   2.019418 C.3        1 UNL1     0.1456
     5 C         1.802388   0.746868   3.283785 C.3        1 UNL1     0.2326
     6 O         0.4071   1.0335   3.221478 O.3        1 UNL1     -0.3076
     7 O         2.083949   -0.637451   3.55893 O.3        1 UNL1     -0.4605
     8 C         2.876973   -0.886639   4.664617 C.ar        1 UNL1     0.1310
     9 C         4.12762   -1.513208   4.640219 C.ar        1 UNL1     0.0226
     10 C         4.863919   -1.70529   5.815324 C.ar        1 UNL1     0.1343
     11 C         4.377539   -1.253648   7.041413 C.ar        1 UNL1     0.1007
     12 C         3.11166   -0.663307   7.084202 C.ar        1 UNL1     0.1389
     13 C         2.370349   -0.47266   5.902871 C.ar        1 UNL1     0.0229
     14 C         5.150268   -1.355162   8.301072 C.2        1 UNL1     0.1740
     15 C         4.57463   -0.621771   9.476796 C.3        1 UNL1     0.0520
     16 C         3.063441   -0.806627   9.467106 C.3        1 UNL1     0.1322
     17 O         2.490217   -0.280071   8.250051 O.3        1 UNL1     -0.4828
     18 C         2.614214   -2.227361   9.817008 C.ar        1 UNL1     -0.0067
     19 C         3.55991   -3.27324   9.813901 C.ar        1 UNL1     -0.0516
     20 C         3.173642   -4.591731   10.082868 C.ar        1 UNL1     -0.0198
     21 C         1.846466   -4.877803   10.348559 C.ar        1 UNL1     0.1169
     22 C         0.897729   -3.864457   10.391768 C.ar        1 UNL1     -0.0198
     23 C         1.28694   -2.543211   10.14101 C.ar        1 UNL1     -0.0516
     24 O         1.501185   -6.178874   10.568551 O.3        1 UNL1     -0.5068
     25 O         6.233822   -1.92726   8.385326 O.2        1 UNL1     -0.2917
     26 O         6.076382   -2.324207   5.723339 O.3        1 UNL1     -0.5058
     27 O         -0.717074   -0.819375   2.316109 O.3        1 UNL1     -0.3648
     28 O         -0.016711   2.039249   0.228061 O.3        1 UNL1     -0.3841
     29 O         2.380876   -0.617023   0.444022 O.3        1 UNL1     -0.3863
     30 O         2.388404   2.715064   1.992326 O.3        1 UNL1     -0.3829
     31 H         -1.227692   1.096012   2.09577 H        1 UNL1     0.0937
     32 H         0.0   0.0   0.0 H        1 UNL1     0.0671
     33 H         2.26798   1.327662   -0.093743 H        1 UNL1     0.0649
     34 H         3.572608   1.040857   2.073717 H        1 UNL1     0.0683
     35 H         2.218154   1.360123   4.093066 H        1 UNL1     0.1085
     36 H         4.585359   -1.8366   3.711772 H        1 UNL1     0.0691
     37 H         1.386897   -0.011495   5.963224 H        1 UNL1     0.0691
     38 H         4.843977   0.434671   9.372351 H        1 UNL1     0.0385
     39 H         5.032411   -1.002182   10.396308 H        1 UNL1     0.0385
     40 H         2.654154   -0.168411   10.261892 H        1 UNL1     0.0789
     41 H         4.606183   -3.076024   9.599266 H        1 UNL1     0.0623
     42 H         3.910207   -5.391226   10.065779 H        1 UNL1     0.0654
     43 H         -0.141632   -4.075224   10.613619 H        1 UNL1     0.0654
     44 H         0.52125   -1.775219   10.193475 H        1 UNL1     0.0623
     45 H         2.272325   -6.64358   10.93202 H        1 UNL1     0.2921
     46 H         6.12715   -3.035696   6.381075 H        1 UNL1     0.2922
     47 H         -0.735314   -1.303389   1.478698 H        1 UNL1     0.2126
     48 H         -0.980222   2.114478   0.36849 H        1 UNL1     0.2101
     49 H         2.108839   -1.227388   1.147758 H        1 UNL1     0.2100
     50 H         3.197141   3.074545   1.57229 H        1 UNL1     0.2102
@<TRIPOS>BOND
     1     1     2    1
     2     1     6    1
     3     2     3    1
     4     3     4    1
     5     3    29    1
     6     3    33    1
     7     4     5    1
     8     5     6    1
     9     5     7    1
    10     5    35    1
    11     7     8    1
    12     8     9   ar
    13     8    13   ar
    14     9    10   ar
    15     9    36    1
    16    10    11   ar
    17    10    26    1
    18    11    12   ar
    19    11    14    1
    20    12    13   ar
    21    12    17    1
    22    13    37    1
    23    14    15    1
    24    14    25    2
    25    15    16    1
    26    15    38    1
    27    15    39    1
    28    16    17    1
    29    16    18    1
    30    16    40    1
    31    18    19   ar
    32    18    23   ar
    33    19    20   ar
    34    19    41    1
    35    20    21   ar
    36    20    42    1
    37    21    22   ar
    38    21    24    1
    39    22    23   ar
    40    22    43    1
    41    23    44    1
    42    24    45    1
    43    26    46    1
    44    27    47    1
    45    28    48    1
    46    29    49    1
    47    30    50    1
    48     1    31    1
    49     1    27    1
    50     2    32    1
    51     2    28    1
    52     4    34    1
    53     4    30    1
