@<TRIPOS>MOLECULE
*****
 50 53 0 0 0
SMALL
GASTEIGER

@<TRIPOS>ATOM
     1 C         0.917743   0.038248   1.981688 C.3        1 UNL1     0.1889
     2 C         -0.322626   0.021447   1.048339 C.3        1 UNL1     0.1342
     3 C         -1.292914   1.195455   1.250109 C.3        1 UNL1     0.1174
     4 C         -1.388861   1.641739   2.711185 C.3        1 UNL1     0.1456
     5 C         -0.007757   1.786851   3.375909 C.3        1 UNL1     0.2326
     6 O         0.706246   0.555936   3.286933 O.3        1 UNL1     -0.3076
     7 O         0.745368   2.914077   2.892706 O.3        1 UNL1     -0.4605
     8 C         1.597797   3.509602   3.804979 C.ar        1 UNL1     0.1310
     9 C         1.271978   3.834241   5.126248 C.ar        1 UNL1     0.0226
     10 C         2.212958   4.421666   5.980292 C.ar        1 UNL1     0.1343
     11 C         3.511074   4.677127   5.540435 C.ar        1 UNL1     0.1007
     12 C         3.8362   4.395088   4.21095 C.ar        1 UNL1     0.1389
     13 C         2.889089   3.806873   3.35164 C.ar        1 UNL1     0.0229
     14 C         4.568988   5.218712   6.424549 C.2        1 UNL1     0.1740
     15 C         5.955864   5.220542   5.851731 C.3        1 UNL1     0.0520
     16 C         5.871949   5.630219   4.387804 C.3        1 UNL1     0.1322
     17 O         5.050018   4.704871   3.642666 O.3        1 UNL1     -0.4828
     18 C         5.515923   7.104242   4.179899 C.ar        1 UNL1     -0.0067
     19 C         4.496174   7.448577   3.268988 C.ar        1 UNL1     -0.0516
     20 C         4.177956   8.78899   3.020005 C.ar        1 UNL1     -0.0198
     21 C         4.875562   9.792239   3.668591 C.ar        1 UNL1     0.1169
     22 C         5.862262   9.484068   4.59611 C.ar        1 UNL1     -0.0198
     23 C         6.168094   8.143398   4.859033 C.ar        1 UNL1     -0.0516
     24 O         4.563617   11.086611   3.372463 O.3        1 UNL1     -0.5068
     25 O         4.365949   5.574188   7.582521 O.2        1 UNL1     -0.2917
     26 O         1.831388   4.714777   7.257036 O.3        1 UNL1     -0.5058
     27 O         2.072703   0.597956   1.377055 O.3        1 UNL1     -0.3648
     28 O         -1.060301   -1.190677   1.291851 O.3        1 UNL1     -0.3841
     29 O         -0.97947   2.270617   0.362464 O.3        1 UNL1     -0.3863
     30 O         -2.161316   0.67269   3.452769 O.3        1 UNL1     -0.3829
     31 H         1.187861   -1.008009   2.161858 H        1 UNL1     0.0937
     32 H         0.0   0.0   -0.0 H        1 UNL1     0.0671
     33 H         -2.295679   0.856281   0.954907 H        1 UNL1     0.0649
     34 H         -1.923682   2.595733   2.776478 H        1 UNL1     0.0683
     35 H         -0.239978   1.944929   4.436552 H        1 UNL1     0.1085
     36 H         0.297057   3.609606   5.544805 H        1 UNL1     0.0691
     37 H         3.166791   3.598094   2.320725 H        1 UNL1     0.0691
     38 H         6.358528   4.207356   5.955864 H        1 UNL1     0.0385
     39 H         6.584852   5.900365   6.436533 H        1 UNL1     0.0385
     40 H         6.876626   5.510821   3.96015 H        1 UNL1     0.0789
     41 H         3.940145   6.67981   2.740328 H        1 UNL1     0.0623
     42 H         3.397647   9.041935   2.306458 H        1 UNL1     0.0654
     43 H         6.404466   10.261609   5.120853 H        1 UNL1     0.0654
     44 H         6.937342   7.938931   5.597474 H        1 UNL1     0.0623
     45 H         4.733112   11.234554   2.427952 H        1 UNL1     0.2921
     46 H         2.427945   4.273689   7.882315 H        1 UNL1     0.2922
     47 H         2.27788   0.133637   0.553545 H        1 UNL1     0.2126
     48 H         -0.468791   -1.93057   1.05435 H        1 UNL1     0.2101
     49 H         -1.193803   2.018536   -0.549846 H        1 UNL1     0.2100
     50 H         -3.079954   0.695785   3.113235 H        1 UNL1     0.2102
@<TRIPOS>BOND
     1     1     2    1
     2     1     6    1
     3     2     3    1
     4     3     4    1
     5     3    29    1
     6     3    33    1
     7     4     5    1
     8     5     6    1
     9     5     7    1
    10     5    35    1
    11     7     8    1
    12     8     9   ar
    13     8    13   ar
    14     9    10   ar
    15     9    36    1
    16    10    11   ar
    17    10    26    1
    18    11    12   ar
    19    11    14    1
    20    12    13   ar
    21    12    17    1
    22    13    37    1
    23    14    15    1
    24    14    25    2
    25    15    16    1
    26    15    38    1
    27    15    39    1
    28    16    17    1
    29    16    18    1
    30    16    40    1
    31    18    19   ar
    32    18    23   ar
    33    19    20   ar
    34    19    41    1
    35    20    21   ar
    36    20    42    1
    37    21    22   ar
    38    21    24    1
    39    22    23   ar
    40    22    43    1
    41    23    44    1
    42    24    45    1
    43    26    46    1
    44    27    47    1
    45    28    48    1
    46    29    49    1
    47    30    50    1
    48     1    31    1
    49     1    27    1
    50     2    32    1
    51     2    28    1
    52     4    34    1
    53     4    30    1
