@<TRIPOS>MOLECULE
*****
 50 53 0 0 0
SMALL
GASTEIGER

@<TRIPOS>ATOM
     1 C         0.322902   -1.872752   1.076726 C.3        1 UNL1     0.1889
     2 C         -0.516293   -0.607284   0.753796 C.3        1 UNL1     0.1342
     3 C         -0.842029   0.27362   1.969678 C.3        1 UNL1     0.1174
     4 C         -1.066105   -0.53831   3.247831 C.3        1 UNL1     0.1456
     5 C         0.017298   -1.610762   3.463352 C.3        1 UNL1     0.2326
     6 O         0.071277   -2.480766   2.335057 O.3        1 UNL1     -0.3076
     7 O         1.300764   -1.06554   3.819398 O.3        1 UNL1     -0.4605
     8 C         1.853369   -1.535378   4.997281 C.ar        1 UNL1     0.1310
     9 C         2.629959   -2.692256   5.123149 C.ar        1 UNL1     0.0226
     10 C         3.160742   -3.076582   6.360269 C.ar        1 UNL1     0.1343
     11 C         2.947415   -2.299711   7.498163 C.ar        1 UNL1     0.1007
     12 C         2.13944   -1.164405   7.393087 C.ar        1 UNL1     0.1389
     13 C         1.603665   -0.779616   6.149579 C.ar        1 UNL1     0.0229
     14 C         3.553694   -2.613477   8.812747 C.2        1 UNL1     0.1740
     15 C         3.402905   -1.555769   9.866344 C.3        1 UNL1     0.0520
     16 C         1.998636   -0.975651   9.769144 C.3        1 UNL1     0.1322
     17 O         1.775613   -0.387665   8.468527 O.3        1 UNL1     -0.4828
     18 C         0.900865   -1.939275   10.226365 C.ar        1 UNL1     -0.0067
     19 C         1.220212   -2.975296   11.12797 C.ar        1 UNL1     -0.0516
     20 C         0.250973   -3.902311   11.529444 C.ar        1 UNL1     -0.0198
     21 C         -1.036462   -3.808698   11.031874 C.ar        1 UNL1     0.1169
     22 C         -1.389787   -2.77971   10.168634 C.ar        1 UNL1     -0.0198
     23 C         -0.425356   -1.841643   9.781391 C.ar        1 UNL1     -0.0516
     24 O         -1.943904   -4.751811   11.415916 O.3        1 UNL1     -0.5068
     25 O         4.210814   -3.628255   9.029317 O.2        1 UNL1     -0.2917
     26 O         3.908741   -4.216327   6.415613 O.3        1 UNL1     -0.5058
     27 O         1.71238   -1.703962   0.845105 O.3        1 UNL1     -0.3648
     28 O         -1.768703   -1.02484   0.179495 O.3        1 UNL1     -0.3841
     29 O         0.140097   1.299142   2.130504 O.3        1 UNL1     -0.3863
     30 O         -2.354186   -1.18755   3.176939 O.3        1 UNL1     -0.3829
     31 H         0.02077   -2.640711   0.356285 H        1 UNL1     0.0937
     32 H         0.0   0.0   0.0 H        1 UNL1     0.0671
     33 H         -1.782876   0.801095   1.759206 H        1 UNL1     0.0649
     34 H         -1.091272   0.129873   4.115759 H        1 UNL1     0.0683
     35 H         -0.361197   -2.203635   4.305446 H        1 UNL1     0.1085
     36 H         2.878409   -3.308315   4.265906 H        1 UNL1     0.0691
     37 H         0.976891   0.107867   6.094602 H        1 UNL1     0.0691
     38 H         4.161165   -0.788638   9.676403 H        1 UNL1     0.0385
     39 H         3.601481   -1.997084   10.848987 H        1 UNL1     0.0385
     40 H         1.949715   -0.127815   10.465779 H        1 UNL1     0.0789
     41 H         2.225876   -3.075777   11.525707 H        1 UNL1     0.0623
     42 H         0.512563   -4.703762   12.215927 H        1 UNL1     0.0654
     43 H         -2.398829   -2.688184   9.784748 H        1 UNL1     0.0654
     44 H         -0.738977   -1.04473   9.113995 H        1 UNL1     0.0623
     45 H         -2.80262   -4.317081   11.543715 H        1 UNL1     0.2921
     46 H         4.491266   -4.25893   5.640847 H        1 UNL1     0.2922
     47 H         2.143101   -1.350346   1.635861 H        1 UNL1     0.2126
     48 H         -1.610881   -1.147855   -0.776377 H        1 UNL1     0.2101
     49 H         0.419775   1.627495   1.26116 H        1 UNL1     0.2100
     50 H         -3.02839   -0.556282   3.50353 H        1 UNL1     0.2102
@<TRIPOS>BOND
     1     1     2    1
     2     1     6    1
     3     2     3    1
     4     3     4    1
     5     3    29    1
     6     3    33    1
     7     4     5    1
     8     5     6    1
     9     5     7    1
    10     5    35    1
    11     7     8    1
    12     8     9   ar
    13     8    13   ar
    14     9    10   ar
    15     9    36    1
    16    10    11   ar
    17    10    26    1
    18    11    12   ar
    19    11    14    1
    20    12    13   ar
    21    12    17    1
    22    13    37    1
    23    14    15    1
    24    14    25    2
    25    15    16    1
    26    15    38    1
    27    15    39    1
    28    16    17    1
    29    16    18    1
    30    16    40    1
    31    18    19   ar
    32    18    23   ar
    33    19    20   ar
    34    19    41    1
    35    20    21   ar
    36    20    42    1
    37    21    22   ar
    38    21    24    1
    39    22    23   ar
    40    22    43    1
    41    23    44    1
    42    24    45    1
    43    26    46    1
    44    27    47    1
    45    28    48    1
    46    29    49    1
    47    30    50    1
    48     1    31    1
    49     1    27    1
    50     2    32    1
    51     2    28    1
    52     4    34    1
    53     4    30    1
