@<TRIPOS>MOLECULE
*****
 50 53 0 0 0
SMALL
GASTEIGER

@<TRIPOS>ATOM
     1 C         -0.315931   -1.374753   1.667647 C.3        1 UNL1     0.1889
     2 C         -0.459573   -0.981053   0.172887 C.3        1 UNL1     0.1342
     3 C         -1.904881   -0.956087   -0.347619 C.3        1 UNL1     0.1174
     4 C         -2.784255   -2.034263   0.290623 C.3        1 UNL1     0.1456
     5 C         -2.619655   -2.101167   1.819935 C.3        1 UNL1     0.2326
     6 O         -1.25158   -2.3267   2.152159 O.3        1 UNL1     -0.3076
     7 O         -3.190467   -0.973181   2.507789 O.3        1 UNL1     -0.4605
     8 C         -3.699629   -1.226351   3.768815 C.ar        1 UNL1     0.1310
     9 C         -4.51317   -2.311768   4.111338 C.ar        1 UNL1     0.0226
     10 C         -4.965775   -2.491174   5.423918 C.ar        1 UNL1     0.1343
     11 C         -4.595867   -1.601679   6.431791 C.ar        1 UNL1     0.1007
     12 C         -3.817587   -0.491373   6.093732 C.ar        1 UNL1     0.1389
     13 C         -3.364805   -0.309758   4.77334 C.ar        1 UNL1     0.0229
     14 C         -4.976156   -1.789417   7.851047 C.2        1 UNL1     0.1740
     15 C         -4.309711   -0.867187   8.829255 C.3        1 UNL1     0.0520
     16 C         -4.244009   0.523286   8.21263 C.3        1 UNL1     0.1322
     17 O         -3.485277   0.503782   6.983397 O.3        1 UNL1     -0.4828
     18 C         -5.605068   1.215459   8.107084 C.ar        1 UNL1     -0.0067
     19 C         -5.737588   2.362981   7.298476 C.ar        1 UNL1     -0.0516
     20 C         -6.956071   3.04755   7.217074 C.ar        1 UNL1     -0.0198
     21 C         -8.045   2.599943   7.943508 C.ar        1 UNL1     0.1169
     22 C         -7.954826   1.45365   8.722431 C.ar        1 UNL1     -0.0198
     23 C         -6.741561   0.75828   8.789553 C.ar        1 UNL1     -0.0516
     24 O         -9.204657   3.314103   7.868865 O.3        1 UNL1     -0.5068
     25 O         -5.722632   -2.684581   8.23827 O.2        1 UNL1     -0.2917
     26 O         -5.757284   -3.569724   5.691929 O.3        1 UNL1     -0.5058
     27 O         -0.204916   -0.259729   2.537811 O.3        1 UNL1     -0.3648
     28 O         0.265678   -1.937243   -0.622358 O.3        1 UNL1     -0.3841
     29 O         -2.463269   0.35415   -0.230935 O.3        1 UNL1     -0.3863
     30 O         -2.439543   -3.319816   -0.269928 O.3        1 UNL1     -0.3829
     31 H         0.646336   -1.889274   1.764545 H        1 UNL1     0.0937
     32 H         0.0   0.0   0.0 H        1 UNL1     0.0671
     33 H         -1.876647   -1.166243   -1.425931 H        1 UNL1     0.0649
     34 H         -3.836729   -1.850523   0.047851 H        1 UNL1     0.0683
     35 H         -3.170664   -3.005853   2.105961 H        1 UNL1     0.1085
     36 H         -4.789587   -3.06862   3.385467 H        1 UNL1     0.0691
     37 H         -2.761029   0.563456   4.535759 H        1 UNL1     0.0691
     38 H         -3.306346   -1.260478   9.024468 H        1 UNL1     0.0385
     39 H         -4.869914   -0.876686   9.770456 H        1 UNL1     0.0385
     40 H         -3.650769   1.150748   8.89151 H        1 UNL1     0.0789
     41 H         -4.895201   2.739724   6.725676 H        1 UNL1     0.0623
     42 H         -7.042349   3.938047   6.599349 H        1 UNL1     0.0654
     43 H         -8.805526   1.085755   9.283567 H        1 UNL1     0.0654
     44 H         -6.709895   -0.139327   9.399588 H        1 UNL1     0.0623
     45 H         -9.040106   4.203851   8.220986 H        1 UNL1     0.2921
     46 H         -5.364032   -4.088857   6.411141 H        1 UNL1     0.2922
     47 H         0.522018   0.313315   2.256658 H        1 UNL1     0.2126
     48 H         1.211496   -1.81665   -0.411128 H        1 UNL1     0.2101
     49 H         -2.036691   0.952344   -0.864961 H        1 UNL1     0.2100
     50 H         -2.706723   -3.319199   -1.212439 H        1 UNL1     0.2102
@<TRIPOS>BOND
     1     1     2    1
     2     1     6    1
     3     2     3    1
     4     3     4    1
     5     3    29    1
     6     3    33    1
     7     4     5    1
     8     5     6    1
     9     5     7    1
    10     5    35    1
    11     7     8    1
    12     8     9   ar
    13     8    13   ar
    14     9    10   ar
    15     9    36    1
    16    10    11   ar
    17    10    26    1
    18    11    12   ar
    19    11    14    1
    20    12    13   ar
    21    12    17    1
    22    13    37    1
    23    14    15    1
    24    14    25    2
    25    15    16    1
    26    15    38    1
    27    15    39    1
    28    16    17    1
    29    16    18    1
    30    16    40    1
    31    18    19   ar
    32    18    23   ar
    33    19    20   ar
    34    19    41    1
    35    20    21   ar
    36    20    42    1
    37    21    22   ar
    38    21    24    1
    39    22    23   ar
    40    22    43    1
    41    23    44    1
    42    24    45    1
    43    26    46    1
    44    27    47    1
    45    28    48    1
    46    29    49    1
    47    30    50    1
    48     1    31    1
    49     1    27    1
    50     2    32    1
    51     2    28    1
    52     4    34    1
    53     4    30    1
