@<TRIPOS>MOLECULE
*****
 50 53 0 0 0
SMALL
GASTEIGER

@<TRIPOS>ATOM
     1 C         -0.32323   -1.365244   1.674048 C.3        1 UNL1     0.1889
     2 C         -0.460446   -0.980003   0.176483 C.3        1 UNL1     0.1342
     3 C         -1.903519   -0.957815   -0.350312 C.3        1 UNL1     0.1174
     4 C         -2.785759   -2.032253   0.290276 C.3        1 UNL1     0.1456
     5 C         -2.627687   -2.09051   1.82063 C.3        1 UNL1     0.2326
     6 O         -1.261071   -2.31432   2.159953 O.3        1 UNL1     -0.3076
     7 O         -3.201263   -0.958577   2.499643 O.3        1 UNL1     -0.4605
     8 C         -3.71583   -1.204537   3.759901 C.ar        1 UNL1     0.1310
     9 C         -4.536647   -2.284113   4.103523 C.ar        1 UNL1     0.0226
     10 C         -4.994398   -2.456459   5.415263 C.ar        1 UNL1     0.1343
     11 C         -4.622573   -1.565667   6.421283 C.ar        1 UNL1     0.1007
     12 C         -3.836887   -0.460986   6.081931 C.ar        1 UNL1     0.1389
     13 C         -3.378922   -0.286459   4.762371 C.ar        1 UNL1     0.0229
     14 C         -5.008393   -1.746394   7.839957 C.2        1 UNL1     0.1740
     15 C         -4.339755   -0.824664   8.81714 C.3        1 UNL1     0.0520
     16 C         -4.264152   0.563302   8.196021 C.3        1 UNL1     0.1322
     17 O         -3.501682   0.535276   6.969268 O.3        1 UNL1     -0.4828
     18 C         -5.620884   1.262883   8.083825 C.ar        1 UNL1     -0.0067
     19 C         -5.744286   2.408384   7.270921 C.ar        1 UNL1     -0.0516
     20 C         -6.958566   3.099627   7.183345 C.ar        1 UNL1     -0.0198
     21 C         -8.052321   2.660728   7.907842 C.ar        1 UNL1     0.1169
     22 C         -7.971163   1.516597   8.690924 C.ar        1 UNL1     -0.0198
     23 C         -6.762119   0.814535   8.764239 C.ar        1 UNL1     -0.0516
     24 O         -9.207627   3.381248   7.827112 O.3        1 UNL1     -0.5068
     25 O         -5.761197   -2.635952   8.227845 O.2        1 UNL1     -0.2917
     26 O         -5.792911   -3.529547   5.68442 O.3        1 UNL1     -0.5058
     27 O         -0.215765   -0.245321   2.538345 O.3        1 UNL1     -0.3648
     28 O         0.268051   -1.94077   -0.610235 O.3        1 UNL1     -0.3841
     29 O         -2.462212   0.353129   -0.243433 O.3        1 UNL1     -0.3863
     30 O         -2.438845   -3.321002   -0.26151 O.3        1 UNL1     -0.3829
     31 H         0.638542   -1.879322   1.777959 H        1 UNL1     0.0937
     32 H         0.0   0.0   0.0 H        1 UNL1     0.0671
     33 H         -1.87072   -1.174081   -1.427286 H        1 UNL1     0.0649
     34 H         -3.837162   -1.849766   0.041983 H        1 UNL1     0.0683
     35 H         -3.180038   -2.993496   2.109426 H        1 UNL1     0.1085
     36 H         -4.815111   -3.041839   3.379348 H        1 UNL1     0.0691
     37 H         -2.76941   0.582476   4.523745 H        1 UNL1     0.0691
     38 H         -3.339278   -1.223019   9.016858 H        1 UNL1     0.0385
     39 H         -4.902961   -0.827756   9.756591 H        1 UNL1     0.0385
     40 H         -3.669465   1.18967   8.874646 H        1 UNL1     0.0789
     41 H         -4.897958   2.778352   6.699516 H        1 UNL1     0.0623
     42 H         -7.037799   3.988494   6.562339 H        1 UNL1     0.0654
     43 H         -8.825717   1.155484   9.250608 H        1 UNL1     0.0654
     44 H         -6.737513   -0.081157   9.377408 H        1 UNL1     0.0623
     45 H         -9.039091   4.271234   8.176736 H        1 UNL1     0.2921
     46 H         -5.404903   -4.048468   6.406627 H        1 UNL1     0.2922
     47 H         0.512443   0.326035   2.257051 H        1 UNL1     0.2126
     48 H         1.212977   -1.819095   -0.395662 H        1 UNL1     0.2101
     49 H         -2.03285   0.947669   -0.879015 H        1 UNL1     0.2100
     50 H         -2.702007   -3.325694   -1.205139 H        1 UNL1     0.2102
@<TRIPOS>BOND
     1     1     2    1
     2     1     6    1
     3     2     3    1
     4     3     4    1
     5     3    29    1
     6     3    33    1
     7     4     5    1
     8     5     6    1
     9     5     7    1
    10     5    35    1
    11     7     8    1
    12     8     9   ar
    13     8    13   ar
    14     9    10   ar
    15     9    36    1
    16    10    11   ar
    17    10    26    1
    18    11    12   ar
    19    11    14    1
    20    12    13   ar
    21    12    17    1
    22    13    37    1
    23    14    15    1
    24    14    25    2
    25    15    16    1
    26    15    38    1
    27    15    39    1
    28    16    17    1
    29    16    18    1
    30    16    40    1
    31    18    19   ar
    32    18    23   ar
    33    19    20   ar
    34    19    41    1
    35    20    21   ar
    36    20    42    1
    37    21    22   ar
    38    21    24    1
    39    22    23   ar
    40    22    43    1
    41    23    44    1
    42    24    45    1
    43    26    46    1
    44    27    47    1
    45    28    48    1
    46    29    49    1
    47    30    50    1
    48     1    31    1
    49     1    27    1
    50     2    32    1
    51     2    28    1
    52     4    34    1
    53     4    30    1
