@<TRIPOS>MOLECULE
*****
 50 53 0 0 0
SMALL
GASTEIGER

@<TRIPOS>ATOM
     1 C         -1.554991   -1.464901   -0.454835 C.3        1 UNL1     0.1889
     2 C         -0.771397   -0.564826   0.538033 C.3        1 UNL1     0.1342
     3 C         -0.117602   -1.317509   1.707001 C.3        1 UNL1     0.1174
     4 C         -0.949407   -2.510702   2.18398 C.3        1 UNL1     0.1456
     5 C         -1.453686   -3.381992   1.019111 C.3        1 UNL1     0.2326
     6 O         -2.214387   -2.587617   0.111823 O.3        1 UNL1     -0.3076
     7 O         -0.411164   -4.135957   0.374127 O.3        1 UNL1     -0.4605
     8 C         -0.167588   -3.822705   -0.951042 C.ar        1 UNL1     0.1310
     9 C         1.087451   -3.834882   -1.569126 C.ar        1 UNL1     0.0226
     10 C         1.229428   -3.517658   -2.925266 C.ar        1 UNL1     0.1343
     11 C         0.115595   -3.203398   -3.702735 C.ar        1 UNL1     0.1007
     12 C         -1.1377   -3.147938   -3.08714 C.ar        1 UNL1     0.1389
     13 C         -1.279847   -3.464371   -1.72292 C.ar        1 UNL1     0.0229
     14 C         0.197412   -2.942178   -5.158491 C.2        1 UNL1     0.1740
     15 C         -1.117141   -2.842139   -5.875073 C.3        1 UNL1     0.0520
     16 C         -2.088895   -2.069858   -4.993464 C.3        1 UNL1     0.1322
     17 O         -2.284436   -2.74551   -3.731589 O.3        1 UNL1     -0.4828
     18 C         -1.759307   -0.580192   -4.871023 C.ar        1 UNL1     -0.0067
     19 C         -0.423752   -0.181687   -4.657249 C.ar        1 UNL1     -0.0516
     20 C         -0.094657   1.169185   -4.493525 C.ar        1 UNL1     -0.0198
     21 C         -1.090728   2.128365   -4.534063 C.ar        1 UNL1     0.1169
     22 C         -2.410496   1.77007   -4.776293 C.ar        1 UNL1     -0.0198
     23 C         -2.737285   0.420963   -4.958439 C.ar        1 UNL1     -0.0516
     24 O         -0.737565   3.430345   -4.332759 O.3        1 UNL1     -0.5068
     25 O         1.257072   -2.887132   -5.777018 O.2        1 UNL1     -0.2917
     26 O         2.481181   -3.547015   -3.467333 O.3        1 UNL1     -0.5058
     27 O         -0.805967   -1.823042   -1.605263 O.3        1 UNL1     -0.3648
     28 O         -1.68489   0.39376   1.103144 O.3        1 UNL1     -0.3841
     29 O         1.229824   -1.673261   1.390747 O.3        1 UNL1     -0.3863
     30 O         -2.088371   -2.026821   2.928499 O.3        1 UNL1     -0.3829
     31 H         -2.377026   -0.856184   -0.847009 H        1 UNL1     0.0937
     32 H         0.0   0.0   0.0 H        1 UNL1     0.0671
     33 H         -0.044436   -0.621951   2.554684 H        1 UNL1     0.0649
     34 H         -0.358185   -3.128996   2.868501 H        1 UNL1     0.0683
     35 H         -2.153101   -4.080765   1.494942 H        1 UNL1     0.1085
     36 H         1.984338   -4.125078   -1.032934 H        1 UNL1     0.0691
     37 H         -2.266288   -3.412662   -1.26712 H        1 UNL1     0.0691
     38 H         -1.473601   -3.861637   -6.056973 H        1 UNL1     0.0385
     39 H         -0.961531   -2.356164   -6.844296 H        1 UNL1     0.0385
     40 H         -3.071827   -2.110802   -5.48202 H        1 UNL1     0.0789
     41 H         0.3751   -0.916161   -4.612157 H        1 UNL1     0.0623
     42 H         0.93724   1.462771   -4.317436 H        1 UNL1     0.0654
     43 H         -3.196243   2.514475   -4.825003 H        1 UNL1     0.0654
     44 H         -3.776846   0.177995   -5.156238 H        1 UNL1     0.0623
     45 H         -0.200831   3.481199   -3.525265 H        1 UNL1     0.2921
     46 H         2.864744   -4.430229   -3.348069 H        1 UNL1     0.2922
     47 H         -1.376036   -2.260013   -2.253288 H        1 UNL1     0.2126
     48 H         -1.408703   1.270871   0.774312 H        1 UNL1     0.2101
     49 H         1.562275   -2.315246   2.038145 H        1 UNL1     0.2100
     50 H         -2.068046   -2.443171   3.815039 H        1 UNL1     0.2102
@<TRIPOS>BOND
     1     1     2    1
     2     1     6    1
     3     2     3    1
     4     3     4    1
     5     3    29    1
     6     3    33    1
     7     4     5    1
     8     5     6    1
     9     5     7    1
    10     5    35    1
    11     7     8    1
    12     8     9   ar
    13     8    13   ar
    14     9    10   ar
    15     9    36    1
    16    10    11   ar
    17    10    26    1
    18    11    12   ar
    19    11    14    1
    20    12    13   ar
    21    12    17    1
    22    13    37    1
    23    14    15    1
    24    14    25    2
    25    15    16    1
    26    15    38    1
    27    15    39    1
    28    16    17    1
    29    16    18    1
    30    16    40    1
    31    18    19   ar
    32    18    23   ar
    33    19    20   ar
    34    19    41    1
    35    20    21   ar
    36    20    42    1
    37    21    22   ar
    38    21    24    1
    39    22    23   ar
    40    22    43    1
    41    23    44    1
    42    24    45    1
    43    26    46    1
    44    27    47    1
    45    28    48    1
    46    29    49    1
    47    30    50    1
    48     1    31    1
    49     1    27    1
    50     2    32    1
    51     2    28    1
    52     4    34    1
    53     4    30    1
