@<TRIPOS>MOLECULE
*****
 50 53 0 0 0
SMALL
GASTEIGER

@<TRIPOS>ATOM
     1 C         0.324393   -1.211799   1.788048 C.3        1 UNL1     0.1889
     2 C         0.664152   -0.809358   0.327725 C.3        1 UNL1     0.1342
     3 C         0.591137   -1.959785   -0.687978 C.3        1 UNL1     0.1174
     4 C         1.032034   -3.301534   -0.097694 C.3        1 UNL1     0.1456
     5 C         0.400263   -3.576793   1.279064 C.3        1 UNL1     0.2326
     6 O         0.718225   -2.518544   2.180107 O.3        1 UNL1     -0.3076
     7 O         -1.008936   -3.862352   1.216329 O.3        1 UNL1     -0.4605
     8 C         -1.741119   -3.107055   0.318018 C.ar        1 UNL1     0.1310
     9 C         -2.430085   -1.92821   0.622898 C.ar        1 UNL1     0.0226
     10 C         -3.130966   -1.223862   -0.363288 C.ar        1 UNL1     0.1343
     11 C         -3.140118   -1.668938   -1.684523 C.ar        1 UNL1     0.1007
     12 C         -2.489973   -2.866824   -1.99301 C.ar        1 UNL1     0.1389
     13 C         -1.787521   -3.576265   -1.000697 C.ar        1 UNL1     0.0229
     14 C         -3.793992   -0.919513   -2.782233 C.2        1 UNL1     0.1740
     15 C         -3.516387   -1.423721   -4.167967 C.3        1 UNL1     0.0520
     16 C         -3.533336   -2.945839   -4.139228 C.3        1 UNL1     0.1322
     17 O         -2.525421   -3.452934   -3.23699 O.3        1 UNL1     -0.4828
     18 C         -4.927564   -3.542737   -3.932918 C.ar        1 UNL1     -0.0067
     19 C         -5.317225   -3.963142   -2.644649 C.ar        1 UNL1     -0.0516
     20 C         -6.566925   -4.556587   -2.430091 C.ar        1 UNL1     -0.0198
     21 C         -7.431077   -4.741486   -3.49446 C.ar        1 UNL1     0.1169
     22 C         -7.089336   -4.307542   -4.768722 C.ar        1 UNL1     -0.0198
     23 C         -5.847177   -3.697319   -4.980206 C.ar        1 UNL1     -0.0516
     24 O         -8.624117   -5.357308   -3.254003 O.3        1 UNL1     -0.5068
     25 O         -4.458286   0.098077   -2.604162 O.2        1 UNL1     -0.2917
     26 O         -3.783147   -0.081739   -0.000245 O.3        1 UNL1     -0.5058
     27 O         -1.019449   -0.93858   2.151679 O.3        1 UNL1     -0.3648
     28 O         2.008741   -0.295689   0.297243 O.3        1 UNL1     -0.3841
     29 O         -0.701627   -2.019819   -1.294023 O.3        1 UNL1     -0.3863
     30 O         2.469478   -3.308377   0.041576 O.3        1 UNL1     -0.3829
     31 H         0.917619   -0.559658   2.438336 H        1 UNL1     0.0937
     32 H         0.0   0.0   -0.0 H        1 UNL1     0.0671
     33 H         1.286792   -1.728858   -1.506792 H        1 UNL1     0.0649
     34 H         0.772597   -4.115318   -0.783879 H        1 UNL1     0.0683
     35 H         0.926665   -4.470143   1.637818 H        1 UNL1     0.1085
     36 H         -2.41489   -1.5003   1.619283 H        1 UNL1     0.0691
     37 H         -1.290531   -4.506814   -1.266352 H        1 UNL1     0.0691
     38 H         -2.533182   -1.045271   -4.467315 H        1 UNL1     0.0385
     39 H         -4.264342   -1.014226   -4.855467 H        1 UNL1     0.0385
     40 H         -3.212955   -3.291917   -5.131249 H        1 UNL1     0.0789
     41 H         -4.65326   -3.837469   -1.794351 H        1 UNL1     0.0623
     42 H         -6.851017   -4.887377   -1.434159 H        1 UNL1     0.0654
     43 H         -7.764614   -4.433763   -5.606563 H        1 UNL1     0.0654
     44 H         -5.617406   -3.360914   -5.986626 H        1 UNL1     0.0623
     45 H         -9.095968   -4.855322   -2.569836 H        1 UNL1     0.2921
     46 H         -3.286441   0.689123   -0.317208 H        1 UNL1     0.2922
     47 H         -1.254694   -0.032471   1.907781 H        1 UNL1     0.2126
     48 H         2.200975   0.038269   1.194601 H        1 UNL1     0.2101
     49 H         -0.723295   -1.453803   -2.082027 H        1 UNL1     0.2100
     50 H         2.720006   -2.557861   0.619221 H        1 UNL1     0.2102
@<TRIPOS>BOND
     1     1     2    1
     2     1     6    1
     3     2     3    1
     4     3     4    1
     5     3    29    1
     6     3    33    1
     7     4     5    1
     8     5     6    1
     9     5     7    1
    10     5    35    1
    11     7     8    1
    12     8     9   ar
    13     8    13   ar
    14     9    10   ar
    15     9    36    1
    16    10    11   ar
    17    10    26    1
    18    11    12   ar
    19    11    14    1
    20    12    13   ar
    21    12    17    1
    22    13    37    1
    23    14    15    1
    24    14    25    2
    25    15    16    1
    26    15    38    1
    27    15    39    1
    28    16    17    1
    29    16    18    1
    30    16    40    1
    31    18    19   ar
    32    18    23   ar
    33    19    20   ar
    34    19    41    1
    35    20    21   ar
    36    20    42    1
    37    21    22   ar
    38    21    24    1
    39    22    23   ar
    40    22    43    1
    41    23    44    1
    42    24    45    1
    43    26    46    1
    44    27    47    1
    45    28    48    1
    46    29    49    1
    47    30    50    1
    48     1    31    1
    49     1    27    1
    50     2    32    1
    51     2    28    1
    52     4    34    1
    53     4    30    1
