@<TRIPOS>MOLECULE
*****
 50 53 0 0 0
SMALL
GASTEIGER

@<TRIPOS>ATOM
     1 C         2.005972   0.77631   -0.379767 C.3        1 UNL1     0.1889
     2 C         0.798323   -0.129709   -0.741227 C.3        1 UNL1     0.1342
     3 C         1.131738   -1.624588   -0.862204 C.3        1 UNL1     0.1174
     4 C         2.528956   -1.876626   -1.434371 C.3        1 UNL1     0.1456
     5 C         3.605379   -0.997385   -0.772092 C.3        1 UNL1     0.2326
     6 O         3.261571   0.379333   -0.911063 O.3        1 UNL1     -0.3076
     7 O         3.896791   -1.373527   0.586185 O.3        1 UNL1     -0.4605
     8 C         2.824097   -1.825712   1.333437 C.ar        1 UNL1     0.1310
     9 C         2.306519   -1.196962   2.471017 C.ar        1 UNL1     0.0226
     10 C         1.202979   -1.725608   3.151189 C.ar        1 UNL1     0.1343
     11 C         0.574853   -2.884065   2.695913 C.ar        1 UNL1     0.1007
     12 C         1.107799   -3.543374   1.585029 C.ar        1 UNL1     0.1389
     13 C         2.219031   -3.013066   0.902851 C.ar        1 UNL1     0.0229
     14 C         -0.644844   -3.439763   3.326541 C.2        1 UNL1     0.1740
     15 C         -1.312595   -4.555188   2.577217 C.3        1 UNL1     0.0520
     16 C         -0.234236   -5.470934   2.014627 C.3        1 UNL1     0.1322
     17 O         0.635552   -4.74735   1.116315 O.3        1 UNL1     -0.4828
     18 C         0.495767   -6.290928   3.08113 C.ar        1 UNL1     -0.0067
     19 C         1.88709   -6.131372   3.245369 C.ar        1 UNL1     -0.0516
     20 C         2.593016   -6.899808   4.178716 C.ar        1 UNL1     -0.0198
     21 C         1.921848   -7.834251   4.946946 C.ar        1 UNL1     0.1169
     22 C         0.546686   -7.990776   4.831752 C.ar        1 UNL1     -0.0198
     23 C         -0.162376   -7.209456   3.91152 C.ar        1 UNL1     -0.0516
     24 O         2.648584   -8.59091   5.818567 O.3        1 UNL1     -0.5068
     25 O         -1.143585   -2.98356   4.352027 O.2        1 UNL1     -0.2917
     26 O         0.747695   -1.064681   4.254583 O.3        1 UNL1     -0.5058
     27 O         2.093917   1.075617   1.004238 O.3        1 UNL1     -0.3648
     28 O         0.27285   0.296213   -2.012122 O.3        1 UNL1     -0.3841
     29 O         0.913508   -2.29498   0.380809 O.3        1 UNL1     -0.3863
     30 O         2.516092   -1.605138   -2.852757 O.3        1 UNL1     -0.3829
     31 H         1.822311   1.74644   -0.854314 H        1 UNL1     0.0937
     32 H         0.0   0.0   0.0 H        1 UNL1     0.0671
     33 H         0.415077   -2.072218   -1.564874 H        1 UNL1     0.0649
     34 H         2.798334   -2.931591   -1.312369 H        1 UNL1     0.0683
     35 H         4.499226   -1.166412   -1.385563 H        1 UNL1     0.1085
     36 H         2.715196   -0.263564   2.842329 H        1 UNL1     0.0691
     37 H         2.615548   -3.546061   0.04135 H        1 UNL1     0.0691
     38 H         -1.907152   -4.105681   1.774738 H        1 UNL1     0.0385
     39 H         -1.993827   -5.083928   3.252595 H        1 UNL1     0.0385
     40 H         -0.737372   -6.208542   1.374855 H        1 UNL1     0.0789
     41 H         2.438396   -5.411068   2.647979 H        1 UNL1     0.0623
     42 H         3.667629   -6.775884   4.287626 H        1 UNL1     0.0654
     43 H         0.008842   -8.708995   5.439036 H        1 UNL1     0.0654
     44 H         -1.237438   -7.350682   3.855456 H        1 UNL1     0.0623
     45 H         2.213298   -9.453716   5.91242 H        1 UNL1     0.2921
     46 H         0.098197   -1.617149   4.717554 H        1 UNL1     0.2922
     47 H         2.903981   1.571188   1.188804 H        1 UNL1     0.2126
     48 H         0.057765   1.244572   -1.9222 H        1 UNL1     0.2101
     49 H         -0.014591   -2.570314   0.448771 H        1 UNL1     0.2100
     50 H         1.595367   -1.708193   -3.171124 H        1 UNL1     0.2102
@<TRIPOS>BOND
     1     1     2    1
     2     1     6    1
     3     2     3    1
     4     3     4    1
     5     3    29    1
     6     3    33    1
     7     4     5    1
     8     5     6    1
     9     5     7    1
    10     5    35    1
    11     7     8    1
    12     8     9   ar
    13     8    13   ar
    14     9    10   ar
    15     9    36    1
    16    10    11   ar
    17    10    26    1
    18    11    12   ar
    19    11    14    1
    20    12    13   ar
    21    12    17    1
    22    13    37    1
    23    14    15    1
    24    14    25    2
    25    15    16    1
    26    15    38    1
    27    15    39    1
    28    16    17    1
    29    16    18    1
    30    16    40    1
    31    18    19   ar
    32    18    23   ar
    33    19    20   ar
    34    19    41    1
    35    20    21   ar
    36    20    42    1
    37    21    22   ar
    38    21    24    1
    39    22    23   ar
    40    22    43    1
    41    23    44    1
    42    24    45    1
    43    26    46    1
    44    27    47    1
    45    28    48    1
    46    29    49    1
    47    30    50    1
    48     1    31    1
    49     1    27    1
    50     2    32    1
    51     2    28    1
    52     4    34    1
    53     4    30    1
