@<TRIPOS>MOLECULE
*****
 50 53 0 0 0
SMALL
GASTEIGER

@<TRIPOS>ATOM
     1 C         -0.152407   -0.267766   -2.162378 C.3        1 UNL1     0.1889
     2 C         -0.015284   -0.826987   -0.720709 C.3        1 UNL1     0.1342
     3 C         1.217971   -1.71416   -0.491644 C.3        1 UNL1     0.1174
     4 C         1.582943   -2.551725   -1.719813 C.3        1 UNL1     0.1456
     5 C         1.578276   -1.726521   -3.019574 C.3        1 UNL1     0.2326
     6 O         0.302038   -1.118382   -3.204648 O.3        1 UNL1     -0.3076
     7 O         2.668866   -0.791671   -3.108951 O.3        1 UNL1     -0.4605
     8 C         3.152955   -0.544758   -4.381044 C.ar        1 UNL1     0.1310
     9 C         3.728122   -1.497928   -5.228363 C.ar        1 UNL1     0.0226
     10 C         4.174289   -1.152131   -6.509481 C.ar        1 UNL1     0.1343
     11 C         4.034234   0.151429   -6.983778 C.ar        1 UNL1     0.1007
     12 C         3.498931   1.12105   -6.131681 C.ar        1 UNL1     0.1389
     13 C         3.05281   0.773673   -4.842598 C.ar        1 UNL1     0.0229
     14 C         4.411433   0.55297   -8.358783 C.2        1 UNL1     0.1740
     15 C         3.987751   1.931914   -8.771769 C.3        1 UNL1     0.0520
     16 C         4.198927   2.873705   -7.594318 C.3        1 UNL1     0.1322
     17 O         3.414227   2.455228   -6.455813 O.3        1 UNL1     -0.4828
     18 C         5.671787   3.149842   -7.282618 C.ar        1 UNL1     -0.0067
     19 C         6.657637   2.255627   -7.74812 C.ar        1 UNL1     -0.0516
     20 C         8.009129   2.452898   -7.440683 C.ar        1 UNL1     -0.0198
     21 C         8.385963   3.534043   -6.664186 C.ar        1 UNL1     0.1169
     22 C         7.442104   4.450498   -6.219124 C.ar        1 UNL1     -0.0198
     23 C         6.092672   4.263651   -6.54189 C.ar        1 UNL1     -0.0516
     24 O         9.70682   3.672721   -6.35353 O.3        1 UNL1     -0.5068
     25 O         4.962924   -0.201129   -9.156076 O.2        1 UNL1     -0.2917
     26 O         4.727001   -2.128556   -7.28581 O.3        1 UNL1     -0.5058
     27 O         0.348778   1.05158   -2.307047 O.3        1 UNL1     -0.3648
     28 O         -1.177352   -1.625101   -0.42862 O.3        1 UNL1     -0.3841
     29 O         2.315655   -0.940306   -0.003411 O.3        1 UNL1     -0.3863
     30 O         0.635946   -3.633834   -1.853706 O.3        1 UNL1     -0.3829
     31 H         -1.225645   -0.17169   -2.359882 H        1 UNL1     0.0937
     32 H         0.0   0.0   0.0 H        1 UNL1     0.0671
     33 H         0.97757   -2.420823   0.314926 H        1 UNL1     0.0649
     34 H         2.570808   -3.005379   -1.582989 H        1 UNL1     0.0683
     35 H         1.691045   -2.478405   -3.810671 H        1 UNL1     0.1085
     36 H         3.814091   -2.539719   -4.939568 H        1 UNL1     0.0691
     37 H         2.640843   1.547348   -4.198235 H        1 UNL1     0.0691
     38 H         2.930573   1.883023   -9.053747 H        1 UNL1     0.0385
     39 H         4.563135   2.235343   -9.653042 H        1 UNL1     0.0385
     40 H         3.774546   3.8464   -7.877663 H        1 UNL1     0.0789
     41 H         6.386504   1.394307   -8.351664 H        1 UNL1     0.0623
     42 H         8.75855   1.749733   -7.795562 H        1 UNL1     0.0654
     43 H         7.728042   5.308892   -5.623045 H        1 UNL1     0.0654
     44 H         5.383618   5.005055   -6.186352 H        1 UNL1     0.0623
     45 H         9.777312   4.203752   -5.543744 H        1 UNL1     0.2921
     46 H         4.372167   -2.065249   -8.186641 H        1 UNL1     0.2922
     47 H         -0.297052   1.692896   -1.979209 H        1 UNL1     0.2126
     48 H         -1.095866   -1.907424   0.502716 H        1 UNL1     0.2101
     49 H         2.230315   -0.021072   -0.30261 H        1 UNL1     0.2100
     50 H         0.776498   -4.251677   -1.10656 H        1 UNL1     0.2102
@<TRIPOS>BOND
     1     1     2    1
     2     1     6    1
     3     2     3    1
     4     3     4    1
     5     3    29    1
     6     3    33    1
     7     4     5    1
     8     5     6    1
     9     5     7    1
    10     5    35    1
    11     7     8    1
    12     8     9   ar
    13     8    13   ar
    14     9    10   ar
    15     9    36    1
    16    10    11   ar
    17    10    26    1
    18    11    12   ar
    19    11    14    1
    20    12    13   ar
    21    12    17    1
    22    13    37    1
    23    14    15    1
    24    14    25    2
    25    15    16    1
    26    15    38    1
    27    15    39    1
    28    16    17    1
    29    16    18    1
    30    16    40    1
    31    18    19   ar
    32    18    23   ar
    33    19    20   ar
    34    19    41    1
    35    20    21   ar
    36    20    42    1
    37    21    22   ar
    38    21    24    1
    39    22    23   ar
    40    22    43    1
    41    23    44    1
    42    24    45    1
    43    26    46    1
    44    27    47    1
    45    28    48    1
    46    29    49    1
    47    30    50    1
    48     1    31    1
    49     1    27    1
    50     2    32    1
    51     2    28    1
    52     4    34    1
    53     4    30    1
