@<TRIPOS>MOLECULE
*****
 50 53 0 0 0
SMALL
GASTEIGER

@<TRIPOS>ATOM
     1 C         2.141746   0.026191   -0.427832 C.3        1 UNL1     0.1889
     2 C         0.702996   -0.500869   -0.677118 C.3        1 UNL1     0.1342
     3 C         0.542818   -2.021803   -0.530258 C.3        1 UNL1     0.1174
     4 C         1.777797   -2.796459   -0.997005 C.3        1 UNL1     0.1456
     5 C         3.088827   -2.20102   -0.452014 C.3        1 UNL1     0.2326
     6 O         3.19717   -0.831989   -0.835268 O.3        1 UNL1     -0.3076
     7 O         3.269305   -2.40917   0.96058 O.3        1 UNL1     -0.4605
     8 C         2.142271   -2.79098   1.665946 C.ar        1 UNL1     0.1310
     9 C         0.895803   -3.086499   1.103552 C.ar        1 UNL1     0.0226
     10 C         -0.183375   -3.482013   1.90283 C.ar        1 UNL1     0.1343
     11 C         -0.035507   -3.614731   3.282816 C.ar        1 UNL1     0.1007
     12 C         1.192876   -3.282854   3.860497 C.ar        1 UNL1     0.1389
     13 C         2.277076   -2.882644   3.056897 C.ar        1 UNL1     0.0229
     14 C         -1.117887   -4.109358   4.164832 C.2        1 UNL1     0.1740
     15 C         -0.718625   -4.401268   5.581492 C.3        1 UNL1     0.0520
     16 C         0.235521   -3.310294   6.047691 C.3        1 UNL1     0.1322
     17 O         1.417346   -3.273586   5.217624 O.3        1 UNL1     -0.4828
     18 C         -0.436754   -1.950912   6.254697 C.ar        1 UNL1     -0.0067
     19 C         -1.833563   -1.838137   6.098432 C.ar        1 UNL1     -0.0516
     20 C         -2.47393   -0.600591   6.233979 C.ar        1 UNL1     -0.0198
     21 C         -1.729426   0.53034   6.51777 C.ar        1 UNL1     0.1169
     22 C         -0.356638   0.445482   6.710359 C.ar        1 UNL1     -0.0198
     23 C         0.281551   -0.79509   6.593085 C.ar        1 UNL1     -0.0516
     24 O         -2.382709   1.724496   6.605023 O.3        1 UNL1     -0.5068
     25 O         -2.255445   -4.350168   3.769284 O.2        1 UNL1     -0.2917
     26 O         -1.372742   -3.754758   1.292421 O.3        1 UNL1     -0.5058
     27 O         2.344019   0.516918   0.887865 O.3        1 UNL1     -0.3648
     28 O         0.317887   -0.15736   -2.021141 O.3        1 UNL1     -0.3841
     29 O         0.144719   -2.363729   0.798929 O.3        1 UNL1     -0.3863
     30 O         1.827195   -2.784188   -2.440299 O.3        1 UNL1     -0.3829
     31 H         2.267153   0.907338   -1.066527 H        1 UNL1     0.0937
     32 H         0.0   0.0   0.0 H        1 UNL1     0.0671
     33 H         -0.290867   -2.334929   -1.174184 H        1 UNL1     0.0649
     34 H         1.700657   -3.844722   -0.687817 H        1 UNL1     0.0683
     35 H         3.872134   -2.746622   -0.992965 H        1 UNL1     0.1085
     36 H         0.7322   -3.056476   0.031893 H        1 UNL1     0.0691
     37 H         3.222626   -2.628698   3.531175 H        1 UNL1     0.0691
     38 H         -0.232424   -5.382595   5.593042 H        1 UNL1     0.0385
     39 H         -1.618392   -4.457991   6.203569 H        1 UNL1     0.0385
     40 H         0.605307   -3.605556   7.038952 H        1 UNL1     0.0789
     41 H         -2.43913   -2.709405   5.866417 H        1 UNL1     0.0623
     42 H         -3.550085   -0.524529   6.099384 H        1 UNL1     0.0654
     43 H         0.23396   1.322262   6.947763 H        1 UNL1     0.0654
     44 H         1.353865   -0.826384   6.760442 H        1 UNL1     0.0623
     45 H         -3.320067   1.577035   6.399274 H        1 UNL1     0.2921
     46 H         -2.024115   -4.024533   1.959014 H        1 UNL1     0.2922
     47 H         1.517887   0.479575   1.389833 H        1 UNL1     0.2126
     48 H         0.363902   -0.980686   -2.544352 H        1 UNL1     0.2101
     49 H         0.453866   -1.685791   1.420718 H        1 UNL1     0.2100
     50 H         2.483318   -3.45354   -2.725227 H        1 UNL1     0.2102
@<TRIPOS>BOND
     1     1     2    1
     2     1     6    1
     3     2     3    1
     4     3     4    1
     5     3    29    1
     6     3    33    1
     7     4     5    1
     8     5     6    1
     9     5     7    1
    10     5    35    1
    11     7     8    1
    12     8     9   ar
    13     8    13   ar
    14     9    10   ar
    15     9    36    1
    16    10    11   ar
    17    10    26    1
    18    11    12   ar
    19    11    14    1
    20    12    13   ar
    21    12    17    1
    22    13    37    1
    23    14    15    1
    24    14    25    2
    25    15    16    1
    26    15    38    1
    27    15    39    1
    28    16    17    1
    29    16    18    1
    30    16    40    1
    31    18    19   ar
    32    18    23   ar
    33    19    20   ar
    34    19    41    1
    35    20    21   ar
    36    20    42    1
    37    21    22   ar
    38    21    24    1
    39    22    23   ar
    40    22    43    1
    41    23    44    1
    42    24    45    1
    43    26    46    1
    44    27    47    1
    45    28    48    1
    46    29    49    1
    47    30    50    1
    48     1    31    1
    49     1    27    1
    50     2    32    1
    51     2    28    1
    52     4    34    1
    53     4    30    1
