@<TRIPOS>MOLECULE
*****
 50 53 0 0 0
SMALL
GASTEIGER

@<TRIPOS>ATOM
     1 C         -0.088731   -1.037001   1.920302 C.3        1 UNL1     0.1889
     2 C         -0.561993   -0.823798   0.457255 C.3        1 UNL1     0.1342
     3 C         -2.066018   -0.550607   0.303174 C.3        1 UNL1     0.1174
     4 C         -2.915357   -1.313885   1.32256 C.3        1 UNL1     0.1456
     5 C         -2.354702   -1.211313   2.752773 C.3        1 UNL1     0.2326
     6 O         -1.010727   -1.68636   2.783235 O.3        1 UNL1     -0.3076
     7 O         -2.506148   0.095928   3.335444 O.3        1 UNL1     -0.4605
     8 C         -2.677506   0.131871   4.707622 C.ar        1 UNL1     0.1310
     9 C         -3.542486   -0.690072   5.438046 C.ar        1 UNL1     0.0226
     10 C         -3.632855   -0.588634   6.831404 C.ar        1 UNL1     0.1343
     11 C         -2.842116   0.321812   7.531162 C.ar        1 UNL1     0.1007
     12 C         -2.004685   1.176233   6.809041 C.ar        1 UNL1     0.1389
     13 C         -1.915948   1.075852   5.407799 C.ar        1 UNL1     0.0229
     14 C         -2.835831   0.413255   9.009591 C.2        1 UNL1     0.1740
     15 C         -1.767936   1.285402   9.601628 C.3        1 UNL1     0.0520
     16 C         -1.630602   2.532057   8.738524 C.3        1 UNL1     0.1322
     17 O         -1.263705   2.181428   7.385928 O.3        1 UNL1     -0.4828
     18 C         -2.820011   3.489471   8.845245 C.ar        1 UNL1     -0.0067
     19 C         -3.412713   3.991473   7.668422 C.ar        1 UNL1     -0.0516
     20 C         -4.471255   4.905562   7.73081 C.ar        1 UNL1     -0.0198
     21 C         -4.940256   5.330112   8.961104 C.ar        1 UNL1     0.1169
     22 C         -4.399281   4.828237   10.137669 C.ar        1 UNL1     -0.0198
     23 C         -3.352985   3.900086   10.075582 C.ar        1 UNL1     -0.0516
     24 O         -5.947247   6.249851   8.982353 O.3        1 UNL1     -0.5068
     25 O         -3.59102   -0.233924   9.730239 O.2        1 UNL1     -0.2917
     26 O         -4.496751   -1.418723   7.484258 O.3        1 UNL1     -0.5058
     27 O         0.451897   0.131803   2.515621 O.3        1 UNL1     -0.3648
     28 O         -0.263226   -2.013332   -0.296705 O.3        1 UNL1     -0.3841
     29 O         -2.328997   0.854019   0.304743 O.3        1 UNL1     -0.3863
     30 O         -2.971028   -2.706653   0.944686 O.3        1 UNL1     -0.3829
     31 H         0.75596   -1.733238   1.877535 H        1 UNL1     0.0937
     32 H         0.0   0.0   0.0 H        1 UNL1     0.0671
     33 H         -2.370697   -0.903375   -0.692037 H        1 UNL1     0.0649
     34 H         -3.943977   -0.936831   1.309429 H        1 UNL1     0.0683
     35 H         -2.958714   -1.926125   3.325565 H        1 UNL1     0.1085
     36 H         -4.142188   -1.45582   4.958349 H        1 UNL1     0.0691
     37 H         -1.257236   1.753422   4.868827 H        1 UNL1     0.0691
     38 H         -0.837245   0.70815   9.612626 H        1 UNL1     0.0385
     39 H         -2.033668   1.525658   10.636733 H        1 UNL1     0.0385
     40 H         -0.768453   3.096102   9.119406 H        1 UNL1     0.0789
     41 H         -3.056668   3.680782   6.690488 H        1 UNL1     0.0623
     42 H         -4.912036   5.294468   6.81622 H        1 UNL1     0.0654
     43 H         -4.768981   5.142488   11.10642 H        1 UNL1     0.0654
     44 H         -2.961253   3.520876   11.014512 H        1 UNL1     0.0623
     45 H         -5.635924   7.055765   8.5393 H        1 UNL1     0.2921
     46 H         -4.01257   -1.928467   8.152945 H        1 UNL1     0.2922
     47 H         1.176436   0.477894   1.976062 H        1 UNL1     0.2126
     48 H         0.707044   -2.122074   -0.274726 H        1 UNL1     0.2101
     49 H         -1.984365   1.255197   -0.508939 H        1 UNL1     0.2100
     50 H         -3.456115   -2.769616   0.095899 H        1 UNL1     0.2102
@<TRIPOS>BOND
     1     1     2    1
     2     1     6    1
     3     2     3    1
     4     3     4    1
     5     3    29    1
     6     3    33    1
     7     4     5    1
     8     5     6    1
     9     5     7    1
    10     5    35    1
    11     7     8    1
    12     8     9   ar
    13     8    13   ar
    14     9    10   ar
    15     9    36    1
    16    10    11   ar
    17    10    26    1
    18    11    12   ar
    19    11    14    1
    20    12    13   ar
    21    12    17    1
    22    13    37    1
    23    14    15    1
    24    14    25    2
    25    15    16    1
    26    15    38    1
    27    15    39    1
    28    16    17    1
    29    16    18    1
    30    16    40    1
    31    18    19   ar
    32    18    23   ar
    33    19    20   ar
    34    19    41    1
    35    20    21   ar
    36    20    42    1
    37    21    22   ar
    38    21    24    1
    39    22    23   ar
    40    22    43    1
    41    23    44    1
    42    24    45    1
    43    26    46    1
    44    27    47    1
    45    28    48    1
    46    29    49    1
    47    30    50    1
    48     1    31    1
    49     1    27    1
    50     2    32    1
    51     2    28    1
    52     4    34    1
    53     4    30    1
