@<TRIPOS>MOLECULE
*****
 50 53 0 0 0
SMALL
GASTEIGER

@<TRIPOS>ATOM
     1 C         -0.325582   -1.360345   1.677576 C.3        1 UNL1     0.1889
     2 C         -0.465052   -0.977245   0.17967 C.3        1 UNL1     0.1342
     3 C         -1.909485   -0.948517   -0.343065 C.3        1 UNL1     0.1174
     4 C         -2.795494   -2.017107   0.302086 C.3        1 UNL1     0.1456
     5 C         -2.633367   -2.073275   1.832094 C.3        1 UNL1     0.2326
     6 O         -1.266978   -2.303579   2.167963 O.3        1 UNL1     -0.3076
     7 O         -3.199088   -0.937068   2.51056 O.3        1 UNL1     -0.4605
     8 C         -3.711338   -1.177935   3.772745 C.ar        1 UNL1     0.1310
     9 C         -4.536799   -2.252549   4.120767 C.ar        1 UNL1     0.0226
     10 C         -4.991703   -2.420001   5.434131 C.ar        1 UNL1     0.1343
     11 C         -4.612365   -1.529251   6.437379 C.ar        1 UNL1     0.1007
     12 C         -3.821892   -0.42934   6.093677 C.ar        1 UNL1     0.1389
     13 C         -3.366784   -0.259723   4.772489 C.ar        1 UNL1     0.0229
     14 C         -4.995078   -1.705257   7.857487 C.2        1 UNL1     0.1740
     15 C         -4.318854   -0.785176   8.830997 C.3        1 UNL1     0.0520
     16 C         -4.237775   0.601192   8.207003 C.3        1 UNL1     0.1322
     17 O         -3.478961   0.566844   6.978145 O.3        1 UNL1     -0.4828
     18 C         -5.591151   1.307639   8.097318 C.ar        1 UNL1     -0.0067
     19 C         -5.957244   1.917749   6.879962 C.ar        1 UNL1     -0.0516
     20 C         -7.166647   2.612657   6.759924 C.ar        1 UNL1     -0.0198
     21 C         -8.013325   2.710679   7.849582 C.ar        1 UNL1     0.1169
     22 C         -7.695975   2.09207   9.051851 C.ar        1 UNL1     -0.0198
     23 C         -6.495195   1.381448   9.166734 C.ar        1 UNL1     -0.0516
     24 O         -9.164829   3.427519   7.706123 O.3        1 UNL1     -0.5068
     25 O         -5.751409   -2.590127   8.249219 O.2        1 UNL1     -0.2917
     26 O         -5.795037   -3.488386   5.707613 O.3        1 UNL1     -0.5058
     27 O         -0.209807   -0.239355   2.539414 O.3        1 UNL1     -0.3648
     28 O         0.256172   -1.943303   -0.607268 O.3        1 UNL1     -0.3841
     29 O         -2.461018   0.36553   -0.237116 O.3        1 UNL1     -0.3863
     30 O         -2.456889   -3.3087   -0.248208 O.3        1 UNL1     -0.3829
     31 H         0.633784   -1.879245   1.779742 H        1 UNL1     0.0937
     32 H         0.0   0.0   0.0 H        1 UNL1     0.0671
     33 H         -1.880886   -1.167003   -1.419711 H        1 UNL1     0.0649
     34 H         -3.846634   -1.8296   0.056431 H        1 UNL1     0.0683
     35 H         -3.189601   -2.97281   2.12419 H        1 UNL1     0.1085
     36 H         -4.821278   -3.010187   3.398841 H        1 UNL1     0.0691
     37 H         -2.753427   0.605558   4.530466 H        1 UNL1     0.0691
     38 H         -3.319906   -1.188373   9.028636 H        1 UNL1     0.0385
     39 H         -4.879389   -0.783534   9.772048 H        1 UNL1     0.0385
     40 H         -3.637894   1.225733   8.882732 H        1 UNL1     0.0789
     41 H         -5.305756   1.862925   6.012663 H        1 UNL1     0.0623
     42 H         -7.43218   3.08895   5.819366 H        1 UNL1     0.0654
     43 H         -8.35876   2.149794   9.907008 H        1 UNL1     0.0654
     44 H         -6.284194   0.901683   10.117602 H        1 UNL1     0.0623
     45 H         -8.930026   4.349099   7.510481 H        1 UNL1     0.2921
     46 H         -5.396541   -4.020211   6.414561 H        1 UNL1     0.2922
     47 H         0.520569   0.327649   2.254956 H        1 UNL1     0.2126
     48 H         1.197532   -1.857105   -0.362022 H        1 UNL1     0.2101
     49 H         -2.030129   0.956689   -0.874816 H        1 UNL1     0.2100
     50 H         -2.702013   -3.305983   -1.19669 H        1 UNL1     0.2102
@<TRIPOS>BOND
     1     1     2    1
     2     1     6    1
     3     2     3    1
     4     3     4    1
     5     3    29    1
     6     3    33    1
     7     4     5    1
     8     5     6    1
     9     5     7    1
    10     5    35    1
    11     7     8    1
    12     8     9   ar
    13     8    13   ar
    14     9    10   ar
    15     9    36    1
    16    10    11   ar
    17    10    26    1
    18    11    12   ar
    19    11    14    1
    20    12    13   ar
    21    12    17    1
    22    13    37    1
    23    14    15    1
    24    14    25    2
    25    15    16    1
    26    15    38    1
    27    15    39    1
    28    16    17    1
    29    16    18    1
    30    16    40    1
    31    18    19   ar
    32    18    23   ar
    33    19    20   ar
    34    19    41    1
    35    20    21   ar
    36    20    42    1
    37    21    22   ar
    38    21    24    1
    39    22    23   ar
    40    22    43    1
    41    23    44    1
    42    24    45    1
    43    26    46    1
    44    27    47    1
    45    28    48    1
    46    29    49    1
    47    30    50    1
    48     1    31    1
    49     1    27    1
    50     2    32    1
    51     2    28    1
    52     4    34    1
    53     4    30    1
