@<TRIPOS>MOLECULE
*****
 50 53 0 0 0
SMALL
GASTEIGER

@<TRIPOS>ATOM
     1 C         -0.328979   -1.328222   1.702469 C.3        1 UNL1     0.1889
     2 C         -0.461316   -0.975794   0.196408 C.3        1 UNL1     0.1342
     3 C         -1.902701   -0.964775   -0.335336 C.3        1 UNL1     0.1174
     4 C         -2.787312   -2.024727   0.325787 C.3        1 UNL1     0.1456
     5 C         -2.63412   -2.049537   1.857544 C.3        1 UNL1     0.2326
     6 O         -1.268661   -2.266211   2.206028 O.3        1 UNL1     -0.3076
     7 O         -3.209491   -0.902881   2.509809 O.3        1 UNL1     -0.4605
     8 C         -3.717523   -1.118469   3.778254 C.ar        1 UNL1     0.1310
     9 C         -4.532286   -2.192206   4.153154 C.ar        1 UNL1     0.0226
     10 C         -4.983589   -2.332648   5.470919 C.ar        1 UNL1     0.1343
     11 C         -4.611136   -1.414775   6.452055 C.ar        1 UNL1     0.1007
     12 C         -3.83159   -0.315975   6.080935 C.ar        1 UNL1     0.1389
     13 C         -3.380117   -0.173553   4.755296 C.ar        1 UNL1     0.0229
     14 C         -4.990008   -1.560552   7.876611 C.2        1 UNL1     0.1740
     15 C         -4.321004   -0.611278   8.826801 C.3        1 UNL1     0.0520
     16 C         -4.253948   0.760562   8.169901 C.3        1 UNL1     0.1322
     17 O         -3.496718   0.704132   6.940882 O.3        1 UNL1     -0.4828
     18 C         -5.614088   1.451466   8.045828 C.ar        1 UNL1     -0.0067
     19 C         -5.995211   2.013471   6.810066 C.ar        1 UNL1     -0.0516
     20 C         -7.211375   2.693636   6.674854 C.ar        1 UNL1     -0.0198
     21 C         -8.049959   2.824701   7.767294 C.ar        1 UNL1     0.1169
     22 C         -7.717627   2.253252   8.988704 C.ar        1 UNL1     -0.0198
     23 C         -6.509994   1.557125   9.119413 C.ar        1 UNL1     -0.0516
     24 O         -9.208604   3.526394   7.607387 O.3        1 UNL1     -0.5068
     25 O         -5.737366   -2.44292   8.290578 O.2        1 UNL1     -0.2917
     26 O         -5.776399   -3.401723   5.771113 O.3        1 UNL1     -0.5058
     27 O         -0.223904   -0.18969   2.542404 O.3        1 UNL1     -0.3648
     28 O         0.269371   -1.953719   -0.566786 O.3        1 UNL1     -0.3841
     29 O         -2.461314   0.348331   -0.258933 O.3        1 UNL1     -0.3863
     30 O         -2.439057   -3.325322   -0.196573 O.3        1 UNL1     -0.3829
     31 H         0.632294   -1.840144   1.820659 H        1 UNL1     0.0937
     32 H         0.0   0.0   0.0 H        1 UNL1     0.0671
     33 H         -1.86655   -1.204554   -1.407212 H        1 UNL1     0.0649
     34 H         -3.837864   -1.847453   0.070217 H        1 UNL1     0.0683
     35 H         -3.187673   -2.945853   2.164261 H        1 UNL1     0.1085
     36 H         -4.810711   -2.969432   3.449932 H        1 UNL1     0.0691
     37 H         -2.775312   0.691449   4.49171 H        1 UNL1     0.0691
     38 H         -3.317999   -1.000267   9.032218 H        1 UNL1     0.0385
     39 H         -4.880094   -0.592524   9.768525 H        1 UNL1     0.0385
     40 H         -3.658951   1.406597   8.829551 H        1 UNL1     0.0789
     41 H         -5.35036   1.932148   5.939891 H        1 UNL1     0.0623
     42 H         -7.488564   3.132899   5.719749 H        1 UNL1     0.0654
     43 H         -8.373897   2.336936   9.846734 H        1 UNL1     0.0654
     44 H         -6.287221   1.114326   10.085408 H        1 UNL1     0.0623
     45 H         -8.983882   4.433908   7.345406 H        1 UNL1     0.2921
     46 H         -5.370623   -3.914184   6.48815 H        1 UNL1     0.2922
     47 H         0.518368   0.364599   2.263737 H        1 UNL1     0.2126
     48 H         1.202394   -1.88742   -0.286063 H        1 UNL1     0.2101
     49 H         -2.023656   0.930956   -0.899868 H        1 UNL1     0.2100
     50 H         -2.673265   -3.340833   -1.147688 H        1 UNL1     0.2102
@<TRIPOS>BOND
     1     1     2    1
     2     1     6    1
     3     2     3    1
     4     3     4    1
     5     3    29    1
     6     3    33    1
     7     4     5    1
     8     5     6    1
     9     5     7    1
    10     5    35    1
    11     7     8    1
    12     8     9   ar
    13     8    13   ar
    14     9    10   ar
    15     9    36    1
    16    10    11   ar
    17    10    26    1
    18    11    12   ar
    19    11    14    1
    20    12    13   ar
    21    12    17    1
    22    13    37    1
    23    14    15    1
    24    14    25    2
    25    15    16    1
    26    15    38    1
    27    15    39    1
    28    16    17    1
    29    16    18    1
    30    16    40    1
    31    18    19   ar
    32    18    23   ar
    33    19    20   ar
    34    19    41    1
    35    20    21   ar
    36    20    42    1
    37    21    22   ar
    38    21    24    1
    39    22    23   ar
    40    22    43    1
    41    23    44    1
    42    24    45    1
    43    26    46    1
    44    27    47    1
    45    28    48    1
    46    29    49    1
    47    30    50    1
    48     1    31    1
    49     1    27    1
    50     2    32    1
    51     2    28    1
    52     4    34    1
    53     4    30    1
