@<TRIPOS>MOLECULE
*****
 50 53 0 0 0
SMALL
GASTEIGER

@<TRIPOS>ATOM
     1 C         -0.022887   -1.193197   1.829361 C.3        1 UNL1     0.1889
     2 C         -0.289146   -1.011617   0.310784 C.3        1 UNL1     0.1342
     3 C         -1.740028   -1.273193   -0.121631 C.3        1 UNL1     0.1174
     4 C         -2.408487   -2.387924   0.686858 C.3        1 UNL1     0.1456
     5 C         -2.172429   -2.241633   2.201202 C.3        1 UNL1     0.2326
     6 O         -0.773381   -2.211577   2.474386 O.3        1 UNL1     -0.3076
     7 O         -2.88755   -1.139624   2.788993 O.3        1 UNL1     -0.4605
     8 C         -3.297241   -1.312448   4.098883 C.ar        1 UNL1     0.1310
     9 C         -3.914934   -2.458887   4.610189 C.ar        1 UNL1     0.0226
     10 C         -4.278256   -2.544558   5.95947 C.ar        1 UNL1     0.1343
     11 C         -4.010849   -1.494062   6.836278 C.ar        1 UNL1     0.1007
     12 C         -3.431672   -0.327995   6.32871 C.ar        1 UNL1     0.1389
     13 C         -3.06885   -0.241076   4.97142 C.ar        1 UNL1     0.0229
     14 C         -4.297035   -1.56407   8.28795 C.2        1 UNL1     0.1740
     15 C         -3.743433   -0.440217   9.113799 C.3        1 UNL1     0.0520
     16 C         -3.923067   0.859293   8.341165 C.3        1 UNL1     0.1322
     17 O         -3.222931   0.806179   7.078605 O.3        1 UNL1     -0.4828
     18 C         -5.379232   1.319839   8.24015 C.ar        1 UNL1     -0.0067
     19 C         -5.667284   2.594543   7.710651 C.ar        1 UNL1     -0.0516
     20 C         -6.98419   3.065486   7.647941 C.ar        1 UNL1     -0.0198
     21 C         -8.018806   2.276061   8.117204 C.ar        1 UNL1     0.1169
     22 C         -7.770264   1.002914   8.613351 C.ar        1 UNL1     -0.0198
     23 C         -6.455367   0.52437   8.659149 C.ar        1 UNL1     -0.0516
     24 O         -9.28423   2.783314   8.074817 O.3        1 UNL1     -0.5068
     25 O         -4.876593   -2.50831   8.818053 O.2        1 UNL1     -0.2917
     26 O         -4.878416   -3.689941   6.394775 O.3        1 UNL1     -0.5058
     27 O         -0.055967   0.023336   2.558565 O.3        1 UNL1     -0.3648
     28 O         0.546376   -1.934497   -0.412336 O.3        1 UNL1     -0.3841
     29 O         -2.495594   -0.060241   -0.121769 O.3        1 UNL1     -0.3863
     30 O         -1.885899   -3.663719   0.256814 O.3        1 UNL1     -0.3829
     31 H         1.012478   -1.537693   1.926425 H        1 UNL1     0.0937
     32 H         0.0   0.0   0.0 H        1 UNL1     0.0671
     33 H         -1.722985   -1.606438   -1.168712 H        1 UNL1     0.0649
     34 H         -3.485899   -2.399448   0.488232 H        1 UNL1     0.0683
     35 H         -2.559311   -3.178652   2.62096 H        1 UNL1     0.1085
     36 H         -4.099122   -3.331006   3.992448 H        1 UNL1     0.0691
     37 H         -2.620365   0.678157   4.600793 H        1 UNL1     0.0691
     38 H         -2.683422   -0.650765   9.291486 H        1 UNL1     0.0385
     39 H         -4.255206   -0.420382   10.082031 H        1 UNL1     0.0385
     40 H         -3.407907   1.646683   8.907862 H        1 UNL1     0.0789
     41 H         -4.871902   3.237016   7.344255 H        1 UNL1     0.0623
     42 H         -7.192229   4.054988   7.24842 H        1 UNL1     0.0654
     43 H         -8.574607   0.370414   8.969564 H        1 UNL1     0.0654
     44 H         -6.298882   -0.479066   9.043172 H        1 UNL1     0.0623
     45 H         -9.329699   3.544752   8.675535 H        1 UNL1     0.2921
     46 H         -4.555012   -3.907046   7.283419 H        1 UNL1     0.2922
     47 H         0.557692   0.66286   2.170891 H        1 UNL1     0.2126
     48 H         1.459418   -1.593789   -0.349045 H        1 UNL1     0.2101
     49 H         -2.33398   0.429139   -0.944072 H        1 UNL1     0.2100
     50 H         -2.188342   -3.819225   -0.661913 H        1 UNL1     0.2102
@<TRIPOS>BOND
     1     1     2    1
     2     1     6    1
     3     2     3    1
     4     3     4    1
     5     3    29    1
     6     3    33    1
     7     4     5    1
     8     5     6    1
     9     5     7    1
    10     5    35    1
    11     7     8    1
    12     8     9   ar
    13     8    13   ar
    14     9    10   ar
    15     9    36    1
    16    10    11   ar
    17    10    26    1
    18    11    12   ar
    19    11    14    1
    20    12    13   ar
    21    12    17    1
    22    13    37    1
    23    14    15    1
    24    14    25    2
    25    15    16    1
    26    15    38    1
    27    15    39    1
    28    16    17    1
    29    16    18    1
    30    16    40    1
    31    18    19   ar
    32    18    23   ar
    33    19    20   ar
    34    19    41    1
    35    20    21   ar
    36    20    42    1
    37    21    22   ar
    38    21    24    1
    39    22    23   ar
    40    22    43    1
    41    23    44    1
    42    24    45    1
    43    26    46    1
    44    27    47    1
    45    28    48    1
    46    29    49    1
    47    30    50    1
    48     1    31    1
    49     1    27    1
    50     2    32    1
    51     2    28    1
    52     4    34    1
    53     4    30    1
