@<TRIPOS>MOLECULE
*****
 50 53 0 0 0
SMALL
GASTEIGER

@<TRIPOS>ATOM
     1 C         -0.283977   -1.34411   1.698096 C.3        1 UNL1     0.1889
     2 C         -0.44364   -0.983933   0.196523 C.3        1 UNL1     0.1342
     3 C         -1.892659   -0.991304   -0.314121 C.3        1 UNL1     0.1174
     4 C         -2.75143   -2.068825   0.352646 C.3        1 UNL1     0.1456
     5 C         -2.575474   -2.101279   1.881812 C.3        1 UNL1     0.2326
     6 O         -1.20195   -2.299493   2.208941 O.3        1 UNL1     -0.3076
     7 O         -3.15844   -0.967747   2.550076 O.3        1 UNL1     -0.4605
     8 C         -3.655184   -1.202015   3.819679 C.ar        1 UNL1     0.1310
     9 C         -4.455773   -2.288304   4.188913 C.ar        1 UNL1     0.0226
     10 C         -4.896246   -2.44734   5.508228 C.ar        1 UNL1     0.1343
     11 C         -4.526705   -1.535809   6.496354 C.ar        1 UNL1     0.1007
     12 C         -3.761572   -0.424877   6.131407 C.ar        1 UNL1     0.1389
     13 C         -3.321004   -0.263778   4.804238 C.ar        1 UNL1     0.0229
     14 C         -4.893943   -1.700515   7.921893 C.2        1 UNL1     0.1740
     15 C         -4.228428   -0.754076   8.877346 C.3        1 UNL1     0.0520
     16 C         -4.180657   0.625189   8.234458 C.3        1 UNL1     0.1322
     17 O         -3.431554   0.589736   6.999688 O.3        1 UNL1     -0.4828
     18 C         -5.548937   1.30269   8.127099 C.ar        1 UNL1     -0.0067
     19 C         -5.937436   1.888988   6.904996 C.ar        1 UNL1     -0.0516
     20 C         -7.161631   2.557716   6.7862 C.ar        1 UNL1     -0.0198
     21 C         -8.001026   2.653194   7.881703 C.ar        1 UNL1     0.1169
     22 C         -7.661212   2.057215   9.089251 C.ar        1 UNL1     -0.0198
     23 C         -6.445362   1.372535   9.203175 C.ar        1 UNL1     -0.0516
     24 O         -9.167975   3.344702   7.738703 O.3        1 UNL1     -0.5068
     25 O         -5.6289   -2.59514   8.331735 O.2        1 UNL1     -0.2917
     26 O         -5.675461   -3.527951   5.802659 O.3        1 UNL1     -0.5058
     27 O         -0.183777   -0.209607   2.544057 O.3        1 UNL1     -0.3648
     28 O         0.290442   -1.945681   -0.583777 O.3        1 UNL1     -0.3841
     29 O         -2.469808   0.312657   -0.220769 O.3        1 UNL1     -0.3863
     30 O         -2.391309   -3.360564   -0.183463 O.3        1 UNL1     -0.3829
     31 H         0.686526   -1.842159   1.798849 H        1 UNL1     0.0937
     32 H         0.0   0.0   0.0 H        1 UNL1     0.0671
     33 H         -1.868596   -1.223525   -1.387999 H        1 UNL1     0.0649
     34 H         -3.808162   -1.905837   0.113577 H        1 UNL1     0.0683
     35 H         -3.110914   -3.007862   2.190507 H        1 UNL1     0.1085
     36 H         -4.730836   -3.061094   3.479507 H        1 UNL1     0.0691
     37 H         -2.727343   0.61038   4.545572 H        1 UNL1     0.0691
     38 H         -3.219904   -1.134384   9.071696 H        1 UNL1     0.0385
     39 H         -4.781032   -0.751166   9.823073 H        1 UNL1     0.0385
     40 H         -3.587955   1.270661   8.89672 H        1 UNL1     0.0789
     41 H         -5.29221   1.83573   6.032931 H        1 UNL1     0.0623
     42 H         -7.444579   3.015959   5.841761 H        1 UNL1     0.0654
     43 H         -8.317893   2.112983   9.949235 H        1 UNL1     0.0654
     44 H         -6.216778   0.909859   10.158437 H        1 UNL1     0.0623
     45 H         -8.953533   4.268132   7.52892 H        1 UNL1     0.2921
     46 H         -5.2604   -4.04215   6.513107 H        1 UNL1     0.2922
     47 H         0.532566   0.368154   2.245887 H        1 UNL1     0.2126
     48 H         1.231869   -1.837261   -0.347783 H        1 UNL1     0.2101
     49 H         -2.056309   0.903813   -0.869882 H        1 UNL1     0.2100
     50 H         -2.644321   -3.375452   -1.129758 H        1 UNL1     0.2102
@<TRIPOS>BOND
     1     1     2    1
     2     1     6    1
     3     2     3    1
     4     3     4    1
     5     3    29    1
     6     3    33    1
     7     4     5    1
     8     5     6    1
     9     5     7    1
    10     5    35    1
    11     7     8    1
    12     8     9   ar
    13     8    13   ar
    14     9    10   ar
    15     9    36    1
    16    10    11   ar
    17    10    26    1
    18    11    12   ar
    19    11    14    1
    20    12    13   ar
    21    12    17    1
    22    13    37    1
    23    14    15    1
    24    14    25    2
    25    15    16    1
    26    15    38    1
    27    15    39    1
    28    16    17    1
    29    16    18    1
    30    16    40    1
    31    18    19   ar
    32    18    23   ar
    33    19    20   ar
    34    19    41    1
    35    20    21   ar
    36    20    42    1
    37    21    22   ar
    38    21    24    1
    39    22    23   ar
    40    22    43    1
    41    23    44    1
    42    24    45    1
    43    26    46    1
    44    27    47    1
    45    28    48    1
    46    29    49    1
    47    30    50    1
    48     1    31    1
    49     1    27    1
    50     2    32    1
    51     2    28    1
    52     4    34    1
    53     4    30    1
