@<TRIPOS>MOLECULE
*****
 50 53 0 0 0
SMALL
GASTEIGER

@<TRIPOS>ATOM
     1 C         -1.537186   -0.568255   1.443936 C.3        1 UNL1     0.1889
     2 C         -0.666567   0.492809   0.718602 C.3        1 UNL1     0.1342
     3 C         0.170928   1.381297   1.651156 C.3        1 UNL1     0.1174
     4 C         -0.536448   1.685885   2.974017 C.3        1 UNL1     0.1456
     5 C         -1.155019   0.430304   3.615305 C.3        1 UNL1     0.2326
     6 O         -2.064849   -0.182624   2.704593 O.3        1 UNL1     -0.3076
     7 O         -0.177347   -0.48574   4.140987 O.3        1 UNL1     -0.4605
     8 C         0.96541   -0.655166   3.380113 C.ar        1 UNL1     0.1310
     9 C         2.043258   -1.483771   3.710201 C.ar        1 UNL1     0.0226
     10 C         3.151615   -1.601456   2.863088 C.ar        1 UNL1     0.1343
     11 C         3.198407   -0.911015   1.65274 C.ar        1 UNL1     0.1007
     12 C         2.14659   -0.04886   1.331564 C.ar        1 UNL1     0.1389
     13 C         1.033459   0.071329   2.184749 C.ar        1 UNL1     0.0229
     14 C         4.306125   -1.063126   0.681155 C.2        1 UNL1     0.1740
     15 C         4.087215   -0.42351   -0.658442 C.3        1 UNL1     0.0520
     16 C         3.411812   0.924057   -0.444314 C.3        1 UNL1     0.1322
     17 O         2.138926   0.760036   0.218957 O.3        1 UNL1     -0.4828
     18 C         4.325068   1.977593   0.187153 C.ar        1 UNL1     -0.0067
     19 C         5.69994   1.979493   -0.125794 C.ar        1 UNL1     -0.0516
     20 C         6.571079   2.899031   0.470468 C.ar        1 UNL1     -0.0198
     21 C         6.082046   3.814887   1.384734 C.ar        1 UNL1     0.1169
     22 C         4.727499   3.859584   1.688122 C.ar        1 UNL1     -0.0198
     23 C         3.853097   2.9522   1.078096 C.ar        1 UNL1     -0.0516
     24 O         6.966618   4.670043   1.973496 O.3        1 UNL1     -0.5068
     25 O         5.312774   -1.73103   0.902624 O.2        1 UNL1     -0.2917
     26 O         4.170243   -2.42552   3.243743 O.3        1 UNL1     -0.5058
     27 O         -0.935382   -1.851858   1.498538 O.3        1 UNL1     -0.3648
     28 O         -1.536152   1.360149   -0.032564 O.3        1 UNL1     -0.3841
     29 O         1.477516   0.832761   1.835729 O.3        1 UNL1     -0.3863
     30 O         -1.584461   2.651463   2.739459 O.3        1 UNL1     -0.3829
     31 H         -2.430204   -0.715158   0.82667 H        1 UNL1     0.0937
     32 H         0.0   0.0   0.0 H        1 UNL1     0.0671
     33 H         0.327562   2.34433   1.145436 H        1 UNL1     0.0649
     34 H         0.167935   2.142083   3.678381 H        1 UNL1     0.0683
     35 H         -1.752916   0.824965   4.446353 H        1 UNL1     0.1085
     36 H         2.042242   -2.0895   4.609763 H        1 UNL1     0.0691
     37 H         0.228137   0.75014   1.912419 H        1 UNL1     0.0691
     38 H         3.451914   -1.094767   -1.246092 H        1 UNL1     0.0385
     39 H         5.049988   -0.327182   -1.17183 H        1 UNL1     0.0385
     40 H         3.155414   1.318959   -1.436702 H        1 UNL1     0.0789
     41 H         6.109997   1.264788   -0.833396 H        1 UNL1     0.0623
     42 H         7.631204   2.882667   0.229889 H        1 UNL1     0.0654
     43 H         4.331476   4.582484   2.391323 H        1 UNL1     0.0654
     44 H         2.799444   3.022511   1.330514 H        1 UNL1     0.0623
     45 H         7.287485   5.29118   1.299738 H        1 UNL1     0.2921
     46 H         3.948973   -3.341484   3.012524 H        1 UNL1     0.2922
     47 H         -1.453116   -2.44054   2.06534 H        1 UNL1     0.2126
     48 H         -2.088703   1.834172   0.618375 H        1 UNL1     0.2101
     49 H         2.074439   1.16254   1.145277 H        1 UNL1     0.2100
     50 H         -2.374973   2.16741   2.422448 H        1 UNL1     0.2102
@<TRIPOS>BOND
     1     1     2    1
     2     1     6    1
     3     2     3    1
     4     3     4    1
     5     3    29    1
     6     3    33    1
     7     4     5    1
     8     5     6    1
     9     5     7    1
    10     5    35    1
    11     7     8    1
    12     8     9   ar
    13     8    13   ar
    14     9    10   ar
    15     9    36    1
    16    10    11   ar
    17    10    26    1
    18    11    12   ar
    19    11    14    1
    20    12    13   ar
    21    12    17    1
    22    13    37    1
    23    14    15    1
    24    14    25    2
    25    15    16    1
    26    15    38    1
    27    15    39    1
    28    16    17    1
    29    16    18    1
    30    16    40    1
    31    18    19   ar
    32    18    23   ar
    33    19    20   ar
    34    19    41    1
    35    20    21   ar
    36    20    42    1
    37    21    22   ar
    38    21    24    1
    39    22    23   ar
    40    22    43    1
    41    23    44    1
    42    24    45    1
    43    26    46    1
    44    27    47    1
    45    28    48    1
    46    29    49    1
    47    30    50    1
    48     1    31    1
    49     1    27    1
    50     2    32    1
    51     2    28    1
    52     4    34    1
    53     4    30    1
