@<TRIPOS>MOLECULE
*****
 50 53 0 0 0
SMALL
GASTEIGER

@<TRIPOS>ATOM
     1 C         -0.33566   -1.331634   1.698496 C.3        1 UNL1     0.1889
     2 C         -0.464779   -0.974792   0.193195 C.3        1 UNL1     0.1342
     3 C         -1.905391   -0.957639   -0.340478 C.3        1 UNL1     0.1174
     4 C         -2.794374   -2.016428   0.31663 C.3        1 UNL1     0.1456
     5 C         -2.643362   -2.045791   1.848523 C.3        1 UNL1     0.2326
     6 O         -1.279098   -2.267863   2.19829 O.3        1 UNL1     -0.3076
     7 O         -3.215865   -0.898983   2.503041 O.3        1 UNL1     -0.4605
     8 C         -3.726762   -1.116361   3.770029 C.ar        1 UNL1     0.1310
     9 C         -4.545851   -2.188322   4.14056 C.ar        1 UNL1     0.0226
     10 C         -4.999843   -2.330888   5.457173 C.ar        1 UNL1     0.1343
     11 C         -4.625869   -1.417055   6.441496 C.ar        1 UNL1     0.1007
     12 C         -3.841917   -0.319921   6.074756 C.ar        1 UNL1     0.1389
     13 C         -3.387734   -0.175352   4.750275 C.ar        1 UNL1     0.0229
     14 C         -5.007627   -1.565506   7.865005 C.2        1 UNL1     0.1740
     15 C         -4.336945   -0.621209   8.818964 C.3        1 UNL1     0.0520
     16 C         -4.264056   0.752222   8.166025 C.3        1 UNL1     0.1322
     17 O         -3.504968   0.696614   6.938115 O.3        1 UNL1     -0.4828
     18 C         -5.621595   1.448166   8.041624 C.ar        1 UNL1     -0.0067
     19 C         -5.997916   2.01657   6.807317 C.ar        1 UNL1     -0.0516
     20 C         -7.21149   2.701341   6.672072 C.ar        1 UNL1     -0.0198
     21 C         -8.052222   2.830657   7.763068 C.ar        1 UNL1     0.1169
     22 C         -7.724689   2.25303   8.982867 C.ar        1 UNL1     -0.0198
     23 C         -6.519689   1.552345   9.113523 C.ar        1 UNL1     -0.0516
     24 O         -9.208146   3.536866   7.603353 O.3        1 UNL1     -0.5068
     25 O         -5.758717   -2.446441   8.275253 O.2        1 UNL1     -0.2917
     26 O         -5.796838   -3.398053   5.753049 O.3        1 UNL1     -0.5058
     27 O         -0.228005   -0.195677   2.541586 O.3        1 UNL1     -0.3648
     28 O         0.263744   -1.953087   -0.571592 O.3        1 UNL1     -0.3841
     29 O         -2.459802   0.357085   -0.261357 O.3        1 UNL1     -0.3863
     30 O         -2.449667   -3.316773   -0.208699 O.3        1 UNL1     -0.3829
     31 H         0.623769   -1.847016   1.816637 H        1 UNL1     0.0937
     32 H         0.0   0.0   0.0 H        1 UNL1     0.0671
     33 H         -1.868559   -1.194699   -1.412936 H        1 UNL1     0.0649
     34 H         -3.843989   -1.835034   0.060102 H        1 UNL1     0.0683
     35 H         -3.200267   -2.941095   2.152112 H        1 UNL1     0.1085
     36 H         -4.825778   -2.962611   3.4347 H        1 UNL1     0.0691
     37 H         -2.779509   0.688289   4.490122 H        1 UNL1     0.0691
     38 H         -3.335634   -1.014234   9.024961 H        1 UNL1     0.0385
     39 H         -4.897544   -0.603158   9.759805 H        1 UNL1     0.0385
     40 H         -3.66794   1.394351   8.828472 H        1 UNL1     0.0789
     41 H         -5.351277   1.936717   5.938334 H        1 UNL1     0.0623
     42 H         -7.484951   3.145492   5.718154 H        1 UNL1     0.0654
     43 H         -8.382711   2.335333   9.839689 H        1 UNL1     0.0654
     44 H         -6.300681   1.104794   10.078188 H        1 UNL1     0.0623
     45 H         -8.979768   4.444896   7.346366 H        1 UNL1     0.2921
     46 H         -5.39455   -3.913334   6.47003 H        1 UNL1     0.2922
     47 H         0.516355   0.356998   2.265292 H        1 UNL1     0.2126
     48 H         1.196715   -1.890102   -0.289937 H        1 UNL1     0.2101
     49 H         -2.019361   0.939965   -0.900151 H        1 UNL1     0.2100
     50 H         -2.682623   -3.329   -1.160169 H        1 UNL1     0.2102
@<TRIPOS>BOND
     1     1     2    1
     2     1     6    1
     3     2     3    1
     4     3     4    1
     5     3    29    1
     6     3    33    1
     7     4     5    1
     8     5     6    1
     9     5     7    1
    10     5    35    1
    11     7     8    1
    12     8     9   ar
    13     8    13   ar
    14     9    10   ar
    15     9    36    1
    16    10    11   ar
    17    10    26    1
    18    11    12   ar
    19    11    14    1
    20    12    13   ar
    21    12    17    1
    22    13    37    1
    23    14    15    1
    24    14    25    2
    25    15    16    1
    26    15    38    1
    27    15    39    1
    28    16    17    1
    29    16    18    1
    30    16    40    1
    31    18    19   ar
    32    18    23   ar
    33    19    20   ar
    34    19    41    1
    35    20    21   ar
    36    20    42    1
    37    21    22   ar
    38    21    24    1
    39    22    23   ar
    40    22    43    1
    41    23    44    1
    42    24    45    1
    43    26    46    1
    44    27    47    1
    45    28    48    1
    46    29    49    1
    47    30    50    1
    48     1    31    1
    49     1    27    1
    50     2    32    1
    51     2    28    1
    52     4    34    1
    53     4    30    1
