@<TRIPOS>MOLECULE
*****
 50 53 0 0 0
SMALL
GASTEIGER

@<TRIPOS>ATOM
     1 C         0.324393   -1.211799   1.788048 C.3        1 UNL1     0.1889
     2 C         0.664152   -0.809358   0.327725 C.3        1 UNL1     0.1342
     3 C         0.591137   -1.959785   -0.687978 C.3        1 UNL1     0.1174
     4 C         1.032034   -3.301534   -0.097694 C.3        1 UNL1     0.1456
     5 C         0.400263   -3.576793   1.279064 C.3        1 UNL1     0.2326
     6 O         0.718225   -2.518544   2.180107 O.3        1 UNL1     -0.3076
     7 O         -1.008936   -3.862352   1.216329 O.3        1 UNL1     -0.4605
     8 C         -1.491536   -4.744724   2.166089 C.ar        1 UNL1     0.1310
     9 C         -1.09417   -6.078496   2.309109 C.ar        1 UNL1     0.0226
     10 C         -1.630619   -6.889465   3.31631 C.ar        1 UNL1     0.1343
     11 C         -2.560797   -6.378944   4.220731 C.ar        1 UNL1     0.1007
     12 C         -2.99586   -5.060425   4.062581 C.ar        1 UNL1     0.1389
     13 C         -2.458274   -4.245983   3.048129 C.ar        1 UNL1     0.0229
     14 C         -3.097233   -7.16636   5.354913 C.2        1 UNL1     0.1740
     15 C         -3.91086   -6.395948   6.352923 C.3        1 UNL1     0.0520
     16 C         -4.790771   -5.409045   5.598114 C.3        1 UNL1     0.1322
     17 O         -3.985781   -4.489189   4.828096 O.3        1 UNL1     -0.4828
     18 C         -5.924897   -6.071036   4.811825 C.ar        1 UNL1     -0.0067
     19 C         -6.979434   -5.276967   4.316225 C.ar        1 UNL1     -0.0516
     20 C         -8.055886   -5.856663   3.634194 C.ar        1 UNL1     -0.0198
     21 C         -8.093064   -7.227003   3.448148 C.ar        1 UNL1     0.1169
     22 C         -7.053079   -8.031603   3.895239 C.ar        1 UNL1     -0.0198
     23 C         -5.967499   -7.450065   4.561111 C.ar        1 UNL1     -0.0516
     24 O         -9.175839   -7.760013   2.812617 O.3        1 UNL1     -0.5068
     25 O         -2.841611   -8.354223   5.534147 O.2        1 UNL1     -0.2917
     26 O         -1.201729   -8.18192   3.401161 O.3        1 UNL1     -0.5058
     27 O         -1.019449   -0.93858   2.151679 O.3        1 UNL1     -0.3648
     28 O         2.008741   -0.295689   0.297243 O.3        1 UNL1     -0.3841
     29 O         -0.701627   -2.019819   -1.294023 O.3        1 UNL1     -0.3863
     30 O         2.469478   -3.308377   0.041576 O.3        1 UNL1     -0.3829
     31 H         0.917619   -0.559658   2.438336 H        1 UNL1     0.0937
     32 H         0.0   0.0   -0.0 H        1 UNL1     0.0671
     33 H         1.286792   -1.728858   -1.506792 H        1 UNL1     0.0649
     34 H         0.772597   -4.115318   -0.783879 H        1 UNL1     0.0683
     35 H         0.926665   -4.470143   1.637818 H        1 UNL1     0.1085
     36 H         -0.333833   -6.518293   1.673038 H        1 UNL1     0.0691
     37 H         -2.814509   -3.223222   2.945418 H        1 UNL1     0.0691
     38 H         -3.213289   -5.87505   7.017444 H        1 UNL1     0.0385
     39 H         -4.498018   -7.097411   6.955396 H        1 UNL1     0.0385
     40 H         -5.286801   -4.778263   6.348173 H        1 UNL1     0.0789
     41 H         -6.978156   -4.200056   4.457335 H        1 UNL1     0.0623
     42 H         -8.868847   -5.235013   3.267239 H        1 UNL1     0.0654
     43 H         -7.064775   -9.104072   3.74167 H        1 UNL1     0.0654
     44 H         -5.167446   -8.107503   4.887509 H        1 UNL1     0.0623
     45 H         -8.862143   -8.420873   2.174201 H        1 UNL1     0.2921
     46 H         -1.022718   -8.403143   4.328753 H        1 UNL1     0.2922
     47 H         -1.626918   -1.43777   1.588074 H        1 UNL1     0.2126
     48 H         1.997343   0.483086   -0.29192 H        1 UNL1     0.2101
     49 H         -0.615749   -1.976165   -2.259691 H        1 UNL1     0.2100
     50 H         2.732685   -2.479306   0.492216 H        1 UNL1     0.2102
@<TRIPOS>BOND
     1     1     2    1
     2     1     6    1
     3     2     3    1
     4     3     4    1
     5     3    29    1
     6     3    33    1
     7     4     5    1
     8     5     6    1
     9     5     7    1
    10     5    35    1
    11     7     8    1
    12     8     9   ar
    13     8    13   ar
    14     9    10   ar
    15     9    36    1
    16    10    11   ar
    17    10    26    1
    18    11    12   ar
    19    11    14    1
    20    12    13   ar
    21    12    17    1
    22    13    37    1
    23    14    15    1
    24    14    25    2
    25    15    16    1
    26    15    38    1
    27    15    39    1
    28    16    17    1
    29    16    18    1
    30    16    40    1
    31    18    19   ar
    32    18    23   ar
    33    19    20   ar
    34    19    41    1
    35    20    21   ar
    36    20    42    1
    37    21    22   ar
    38    21    24    1
    39    22    23   ar
    40    22    43    1
    41    23    44    1
    42    24    45    1
    43    26    46    1
    44    27    47    1
    45    28    48    1
    46    29    49    1
    47    30    50    1
    48     1    31    1
    49     1    27    1
    50     2    32    1
    51     2    28    1
    52     4    34    1
    53     4    30    1
