@<TRIPOS>MOLECULE
*****
 50 53 0 0 0
SMALL
GASTEIGER

@<TRIPOS>ATOM
     1 C         -0.348197   -1.369612   1.665451 C.3        1 UNL1     0.1889
     2 C         -0.502085   -0.959396   0.176162 C.3        1 UNL1     0.1342
     3 C         -1.954441   -0.862621   -0.31553 C.3        1 UNL1     0.1174
     4 C         -2.871322   -1.902362   0.333612 C.3        1 UNL1     0.1456
     5 C         -2.68035   -1.987379   1.858953 C.3        1 UNL1     0.2326
     6 O         -1.318291   -2.279562   2.162749 O.3        1 UNL1     -0.3076
     7 O         -3.183589   -0.838391   2.564572 O.3        1 UNL1     -0.4605
     8 C         -3.67954   -1.0758   3.833902 C.ar        1 UNL1     0.1310
     9 C         -4.539533   -2.12184   4.185344 C.ar        1 UNL1     0.0226
     10 C         -4.974278   -2.28882   5.505578 C.ar        1 UNL1     0.1343
     11 C         -4.540145   -1.427005   6.51188 C.ar        1 UNL1     0.1007
     12 C         -3.714022   -0.354379   6.165791 C.ar        1 UNL1     0.1389
     13 C         -3.279145   -0.185139   4.837758 C.ar        1 UNL1     0.0229
     14 C         -4.900968   -1.606774   7.937237 C.2        1 UNL1     0.1740
     15 C         -4.169678   -0.726869   8.908078 C.3        1 UNL1     0.0520
     16 C         -4.046594   0.66344   8.299927 C.3        1 UNL1     0.1322
     17 O         -3.314488   0.615783   7.055412 O.3        1 UNL1     -0.4828
     18 C         -5.373031   1.423674   8.2269 C.ar        1 UNL1     -0.0067
     19 C         -5.5725   2.54925   9.052432 C.ar        1 UNL1     -0.0516
     20 C         -6.790931   3.238693   9.044916 C.ar        1 UNL1     -0.0198
     21 C         -7.817924   2.809066   8.223615 C.ar        1 UNL1     0.1169
     22 C         -7.640282   1.724227   7.374848 C.ar        1 UNL1     -0.0198
     23 C         -6.415637   1.045801   7.368658 C.ar        1 UNL1     -0.0516
     24 O         -9.003107   3.482484   8.27105 O.3        1 UNL1     -0.5068
     25 O         -5.683552   -2.466518   8.333328 O.2        1 UNL1     -0.2917
     26 O         -5.813415   -3.328511   5.782126 O.3        1 UNL1     -0.5058
     27 O         -0.167571   -0.26703   2.539793 O.3        1 UNL1     -0.3648
     28 O         0.16144   -1.943351   -0.638867 O.3        1 UNL1     -0.3841
     29 O         -2.447751   0.471713   -0.180132 O.3        1 UNL1     -0.3863
     30 O         -2.598874   -3.19892   -0.241191 O.3        1 UNL1     -0.3829
     31 H         0.590316   -1.929675   1.740289 H        1 UNL1     0.0937
     32 H         0.0   0.0   0.0 H        1 UNL1     0.0671
     33 H         -1.957182   -1.06653   -1.395407 H        1 UNL1     0.0649
     34 H         -3.918433   -1.667446   0.112767 H        1 UNL1     0.0683
     35 H         -3.26793   -2.866946   2.150486 H        1 UNL1     0.1085
     36 H         -4.868025   -2.858107   3.46 H        1 UNL1     0.0691
     37 H         -2.637166   0.658632   4.594024 H        1 UNL1     0.0691
     38 H         -3.183621   -1.171419   9.080105 H        1 UNL1     0.0385
     39 H         -4.710751   -0.715818   9.860389 H        1 UNL1     0.0385
     40 H         -3.409174   1.255004   8.970948 H        1 UNL1     0.0789
     41 H         -4.785126   2.900874   9.712776 H        1 UNL1     0.0623
     42 H         -6.936569   4.098018   9.69481 H        1 UNL1     0.0654
     43 H         -8.43273   1.388514   6.716644 H        1 UNL1     0.0654
     44 H         -6.308157   0.20904   6.685192 H        1 UNL1     0.0623
     45 H         -9.498939   3.176323   9.047667 H        1 UNL1     0.2921
     46 H         -5.581885   -3.710872   6.643291 H        1 UNL1     0.2922
     47 H         0.731556   -0.266588   2.896766 H        1 UNL1     0.2126
     48 H         -0.421793   -2.112331   -1.403732 H        1 UNL1     0.2101
     49 H         -2.970509   0.549287   0.633809 H        1 UNL1     0.2100
     50 H         -2.054683   -3.70381   0.39807 H        1 UNL1     0.2102
@<TRIPOS>BOND
     1     1     2    1
     2     1     6    1
     3     2     3    1
     4     3     4    1
     5     3    29    1
     6     3    33    1
     7     4     5    1
     8     5     6    1
     9     5     7    1
    10     5    35    1
    11     7     8    1
    12     8     9   ar
    13     8    13   ar
    14     9    10   ar
    15     9    36    1
    16    10    11   ar
    17    10    26    1
    18    11    12   ar
    19    11    14    1
    20    12    13   ar
    21    12    17    1
    22    13    37    1
    23    14    15    1
    24    14    25    2
    25    15    16    1
    26    15    38    1
    27    15    39    1
    28    16    17    1
    29    16    18    1
    30    16    40    1
    31    18    19   ar
    32    18    23   ar
    33    19    20   ar
    34    19    41    1
    35    20    21   ar
    36    20    42    1
    37    21    22   ar
    38    21    24    1
    39    22    23   ar
    40    22    43    1
    41    23    44    1
    42    24    45    1
    43    26    46    1
    44    27    47    1
    45    28    48    1
    46    29    49    1
    47    30    50    1
    48     1    31    1
    49     1    27    1
    50     2    32    1
    51     2    28    1
    52     4    34    1
    53     4    30    1
