@<TRIPOS>MOLECULE
*****
 50 53 0 0 0
SMALL
GASTEIGER

@<TRIPOS>ATOM
     1 C         -0.400916   -1.372358   1.651273 C.3        1 UNL1     0.1889
     2 C         -0.494642   -0.966768   0.155729 C.3        1 UNL1     0.1342
     3 C         -1.924988   -0.893143   -0.400288 C.3        1 UNL1     0.1174
     4 C         -2.853785   -1.945948   0.209675 C.3        1 UNL1     0.1456
     5 C         -2.729613   -2.025754   1.742181 C.3        1 UNL1     0.2326
     6 O         -1.378101   -2.296434   2.106894 O.3        1 UNL1     -0.3076
     7 O         -3.281338   -0.883627   2.422229 O.3        1 UNL1     -0.4605
     8 C         -3.829592   -1.126784   3.668752 C.ar        1 UNL1     0.1310
     9 C         -4.916465   -1.969419   3.925606 C.ar        1 UNL1     0.0226
     10 C         -5.388926   -2.164356   5.228941 C.ar        1 UNL1     0.1343
     11 C         -4.770283   -1.539312   6.310811 C.ar        1 UNL1     0.1007
     12 C         -3.710026   -0.663513   6.062584 C.ar        1 UNL1     0.1389
     13 C         -3.236838   -0.465617   4.751721 C.ar        1 UNL1     0.0229
     14 C         -5.174822   -1.775045   7.716133 C.2        1 UNL1     0.1740
     15 C         -4.262976   -1.199389   8.759544 C.3        1 UNL1     0.0520
     16 C         -3.807918   0.177296   8.295195 C.3        1 UNL1     0.1322
     17 O         -3.098292   0.086488   7.040104 O.3        1 UNL1     -0.4828
     18 C         -4.914851   1.234012   8.323059 C.ar        1 UNL1     -0.0067
     19 C         -4.586243   2.587186   8.101364 C.ar        1 UNL1     -0.0516
     20 C         -5.566589   3.584482   8.166824 C.ar        1 UNL1     -0.0198
     21 C         -6.874839   3.243139   8.459732 C.ar        1 UNL1     0.1169
     22 C         -7.235517   1.915513   8.64989 C.ar        1 UNL1     -0.0198
     23 C         -6.258768   0.916   8.566265 C.ar        1 UNL1     -0.0516
     24 O         -7.795091   4.245604   8.552468 O.3        1 UNL1     -0.5068
     25 O         -6.142556   -2.460743   8.035187 O.2        1 UNL1     -0.2917
     26 O         -6.453436   -2.998045   5.411603 O.3        1 UNL1     -0.5058
     27 O         -0.276332   -0.265829   2.530397 O.3        1 UNL1     -0.3648
     28 O         0.219528   -1.94157   -0.626848 O.3        1 UNL1     -0.3841
     29 O         -2.44426   0.433618   -0.289855 O.3        1 UNL1     -0.3863
     30 O         -2.536152   -3.238996   -0.349634 O.3        1 UNL1     -0.3829
     31 H         0.541822   -1.917761   1.768996 H        1 UNL1     0.0937
     32 H         0.0   0.0   0.0 H        1 UNL1     0.0671
     33 H         -1.87653   -1.098666   -1.478774 H        1 UNL1     0.0649
     34 H         -3.893511   -1.727546   -0.058037 H        1 UNL1     0.0683
     35 H         -3.316016   -2.913851   2.00919 H        1 UNL1     0.1085
     36 H         -5.404873   -2.527398   3.134255 H        1 UNL1     0.0691
     37 H         -2.410681   0.222237   4.584948 H        1 UNL1     0.0691
     38 H         -3.412348   -1.88066   8.8683 H        1 UNL1     0.0385
     39 H         -4.793442   -1.158993   9.717015 H        1 UNL1     0.0385
     40 H         -3.053443   0.527811   9.01243 H        1 UNL1     0.0789
     41 H         -3.564864   2.881959   7.878778 H        1 UNL1     0.0623
     42 H         -5.29847   4.625715   8.005705 H        1 UNL1     0.0654
     43 H         -8.259848   1.635513   8.864959 H        1 UNL1     0.0654
     44 H         -6.577932   -0.111789   8.70989 H        1 UNL1     0.0623
     45 H         -7.324287   5.081006   8.704665 H        1 UNL1     0.2921
     46 H         -6.28142   -3.581532   6.16749 H        1 UNL1     0.2922
     47 H         0.637569   0.051198   2.542172 H        1 UNL1     0.2126
     48 H         0.200491   -1.626624   -1.551066 H        1 UNL1     0.2101
     49 H         -3.003857   0.504319   0.499858 H        1 UNL1     0.2100
     50 H         -2.792158   -3.229629   -1.295196 H        1 UNL1     0.2102
@<TRIPOS>BOND
     1     1     2    1
     2     1     6    1
     3     2     3    1
     4     3     4    1
     5     3    29    1
     6     3    33    1
     7     4     5    1
     8     5     6    1
     9     5     7    1
    10     5    35    1
    11     7     8    1
    12     8     9   ar
    13     8    13   ar
    14     9    10   ar
    15     9    36    1
    16    10    11   ar
    17    10    26    1
    18    11    12   ar
    19    11    14    1
    20    12    13   ar
    21    12    17    1
    22    13    37    1
    23    14    15    1
    24    14    25    2
    25    15    16    1
    26    15    38    1
    27    15    39    1
    28    16    17    1
    29    16    18    1
    30    16    40    1
    31    18    19   ar
    32    18    23   ar
    33    19    20   ar
    34    19    41    1
    35    20    21   ar
    36    20    42    1
    37    21    22   ar
    38    21    24    1
    39    22    23   ar
    40    22    43    1
    41    23    44    1
    42    24    45    1
    43    26    46    1
    44    27    47    1
    45    28    48    1
    46    29    49    1
    47    30    50    1
    48     1    31    1
    49     1    27    1
    50     2    32    1
    51     2    28    1
    52     4    34    1
    53     4    30    1
