@<TRIPOS>MOLECULE
*****
 50 53 0 0 0
SMALL
GASTEIGER

@<TRIPOS>ATOM
     1 C         0.920858   0.181802   1.972251 C.3        1 UNL1     0.1889
     2 C         -0.316827   0.177582   1.035204 C.3        1 UNL1     0.1342
     3 C         -1.164805   1.4577   1.08713 C.3        1 UNL1     0.1174
     4 C         -1.21291   2.081473   2.484167 C.3        1 UNL1     0.1456
     5 C         0.177078   2.166623   3.140708 C.3        1 UNL1     0.2326
     6 O         0.764594   0.869101   3.20497 O.3        1 UNL1     -0.3076
     7 O         1.037914   3.148208   2.535091 O.3        1 UNL1     -0.4605
     8 C         0.505477   4.417159   2.39437 C.ar        1 UNL1     0.1310
     9 C         -0.171116   4.891438   1.265396 C.ar        1 UNL1     0.0226
     10 C         -0.690284   6.19097   1.225602 C.ar        1 UNL1     0.1343
     11 C         -0.566088   7.040583   2.324044 C.ar        1 UNL1     0.1007
     12 C         0.143228   6.592379   3.441526 C.ar        1 UNL1     0.1389
     13 C         0.66745   5.286577   3.480279 C.ar        1 UNL1     0.0229
     14 C         -1.167989   8.393337   2.367926 C.2        1 UNL1     0.1740
     15 C         -1.128613   9.078528   3.702284 C.3        1 UNL1     0.0520
     16 C         0.222225   8.800278   4.347087 C.3        1 UNL1     0.1322
     17 O         0.418535   7.381301   4.534264 O.3        1 UNL1     -0.4828
     18 C         1.389845   9.517744   3.665449 C.ar        1 UNL1     -0.0067
     19 C         1.131073   10.402912   2.598805 C.ar        1 UNL1     -0.0516
     20 C         2.179139   11.038865   1.922724 C.ar        1 UNL1     -0.0198
     21 C         3.487736   10.79288   2.298078 C.ar        1 UNL1     0.1169
     22 C         3.772788   9.952242   3.366213 C.ar        1 UNL1     -0.0198
     23 C         2.724032   9.330475   4.05438 C.ar        1 UNL1     -0.0516
     24 O         4.483828   11.400881   1.592008 O.3        1 UNL1     -0.5068
     25 O         -1.739501   8.91041   1.411634 O.2        1 UNL1     -0.2917
     26 O         -1.338532   6.592618   0.094215 O.3        1 UNL1     -0.5058
     27 O         2.124692   0.548411   1.317141 O.3        1 UNL1     -0.3648
     28 O         -1.171225   -0.91785   1.413015 O.3        1 UNL1     -0.3841
     29 O         -0.747442   2.383505   0.081733 O.3        1 UNL1     -0.3863
     30 O         -2.076699   1.288732   3.327446 O.3        1 UNL1     -0.3829
     31 H         1.085643   -0.857298   2.27753 H        1 UNL1     0.0937
     32 H         0.0   0.0   -0.0 H        1 UNL1     0.0671
     33 H         -2.196971   1.187111   0.824193 H        1 UNL1     0.0649
     34 H         -1.6498   3.084813   2.430906 H        1 UNL1     0.0683
     35 H         -0.036145   2.471678   4.172869 H        1 UNL1     0.1085
     36 H         -0.349433   4.261328   0.400939 H        1 UNL1     0.0691
     37 H         1.216604   4.96215   4.361567 H        1 UNL1     0.0691
     38 H         -1.946227   8.67243   4.307362 H        1 UNL1     0.0385
     39 H         -1.307142   10.149951   3.561008 H        1 UNL1     0.0385
     40 H         0.184922   9.209031   5.365935 H        1 UNL1     0.0789
     41 H         0.113057   10.605614   2.279111 H        1 UNL1     0.0623
     42 H         1.967274   11.710065   1.094102 H        1 UNL1     0.0654
     43 H         4.793212   9.764303   3.678181 H        1 UNL1     0.0654
     44 H         2.98274   8.688235   4.890707 H        1 UNL1     0.0623
     45 H         4.440298   11.092321   0.672436 H        1 UNL1     0.2921
     46 H         -2.083953   7.165352   0.334494 H        1 UNL1     0.2922
     47 H         2.888697   0.289503   1.85111 H        1 UNL1     0.2126
     48 H         -0.707169   -1.736956   1.153306 H        1 UNL1     0.2101
     49 H         -0.243482   1.919333   -0.605554 H        1 UNL1     0.2100
     50 H         -2.500646   0.605761   2.767506 H        1 UNL1     0.2102
@<TRIPOS>BOND
     1     1     2    1
     2     1     6    1
     3     2     3    1
     4     3     4    1
     5     3    29    1
     6     3    33    1
     7     4     5    1
     8     5     6    1
     9     5     7    1
    10     5    35    1
    11     7     8    1
    12     8     9   ar
    13     8    13   ar
    14     9    10   ar
    15     9    36    1
    16    10    11   ar
    17    10    26    1
    18    11    12   ar
    19    11    14    1
    20    12    13   ar
    21    12    17    1
    22    13    37    1
    23    14    15    1
    24    14    25    2
    25    15    16    1
    26    15    38    1
    27    15    39    1
    28    16    17    1
    29    16    18    1
    30    16    40    1
    31    18    19   ar
    32    18    23   ar
    33    19    20   ar
    34    19    41    1
    35    20    21   ar
    36    20    42    1
    37    21    22   ar
    38    21    24    1
    39    22    23   ar
    40    22    43    1
    41    23    44    1
    42    24    45    1
    43    26    46    1
    44    27    47    1
    45    28    48    1
    46    29    49    1
    47    30    50    1
    48     1    31    1
    49     1    27    1
    50     2    32    1
    51     2    28    1
    52     4    34    1
    53     4    30    1
