@<TRIPOS>MOLECULE
*****
 50 53 0 0 0
SMALL
GASTEIGER

@<TRIPOS>ATOM
     1 C         1.371031   1.350495   1.033075 C.3        1 UNL1     0.1889
     2 C         0.053945   0.532228   0.957802 C.3        1 UNL1     0.1342
     3 C         -1.226849   1.360125   1.143859 C.3        1 UNL1     0.1174
     4 C         -1.049323   2.513542   2.13443 C.3        1 UNL1     0.1456
     5 C         0.24068   3.315112   1.881958 C.3        1 UNL1     0.2326
     6 O         1.370557   2.447118   1.93519 O.3        1 UNL1     -0.3076
     7 O         0.195247   4.112016   0.684377 O.3        1 UNL1     -0.4605
     8 C         0.974949   5.254639   0.686607 C.ar        1 UNL1     0.1310
     9 C         0.829786   6.333011   1.566005 C.ar        1 UNL1     0.0226
     10 C         1.682668   7.441181   1.499276 C.ar        1 UNL1     0.1343
     11 C         2.717476   7.487265   0.566061 C.ar        1 UNL1     0.1007
     12 C         2.846766   6.434909   -0.344222 C.ar        1 UNL1     0.1389
     13 C         1.987415   5.321964   -0.278639 C.ar        1 UNL1     0.0229
     14 C         3.699312   8.594779   0.506358 C.2        1 UNL1     0.1740
     15 C         4.871198   8.375148   -0.404683 C.3        1 UNL1     0.0520
     16 C         4.373868   7.699111   -1.674956 C.3        1 UNL1     0.1322
     17 O         3.760762   6.426503   -1.372233 O.3        1 UNL1     -0.4828
     18 C         3.531966   8.612006   -2.569689 C.ar        1 UNL1     -0.0067
     19 C         2.18519   8.860251   -2.233859 C.ar        1 UNL1     -0.0516
     20 C         1.37411   9.651872   -3.055716 C.ar        1 UNL1     -0.0198
     21 C         1.894726   10.193691   -4.217275 C.ar        1 UNL1     0.1169
     22 C         3.226451   9.994739   -4.557517 C.ar        1 UNL1     -0.0198
     23 C         4.042789   9.218374   -3.72631 C.ar        1 UNL1     -0.0516
     24 O         1.064443   10.927995   -5.012151 O.3        1 UNL1     -0.5068
     25 O         3.625897   9.601837   1.205593 O.2        1 UNL1     -0.2917
     26 O         1.487127   8.460347   2.385081 O.3        1 UNL1     -0.5058
     27 O         1.881394   1.718551   -0.238479 O.3        1 UNL1     -0.3648
     28 O         0.075382   -0.463263   1.997632 O.3        1 UNL1     -0.3841
     29 O         -1.741258   1.788971   -0.118523 O.3        1 UNL1     -0.3863
     30 O         -1.010857   1.983168   3.477157 O.3        1 UNL1     -0.3829
     31 H         2.132776   0.679924   1.445578 H        1 UNL1     0.0937
     32 H         -0.0   0.0   0.0 H        1 UNL1     0.0671
     33 H         -1.996794   0.697181   1.562677 H        1 UNL1     0.0649
     34 H         -1.91077   3.18841   2.080917 H        1 UNL1     0.0683
     35 H         0.310804   3.983504   2.749261 H        1 UNL1     0.1085
     36 H         0.080484   6.33257   2.350012 H        1 UNL1     0.0691
     37 H         2.10822   4.516212   -0.999515 H        1 UNL1     0.0691
     38 H         5.588635   7.740024   0.125815 H        1 UNL1     0.0385
     39 H         5.3523   9.337722   -0.609065 H        1 UNL1     0.0385
     40 H         5.258869   7.44222   -2.272702 H        1 UNL1     0.0789
     41 H         1.750324   8.438859   -1.33221 H        1 UNL1     0.0623
     42 H         0.333859   9.826165   -2.792068 H        1 UNL1     0.0654
     43 H         3.648443   10.426776   -5.45706 H        1 UNL1     0.0654
     44 H         5.081187   9.09243   -4.017365 H        1 UNL1     0.0623
     45 H         0.291387   10.383874   -5.233585 H        1 UNL1     0.2921
     46 H         1.527822   9.308807   1.916177 H        1 UNL1     0.2922
     47 H         1.496338   2.559067   -0.523304 H        1 UNL1     0.2126
     48 H         -0.813415   -0.464181   2.402318 H        1 UNL1     0.2101
     49 H         -2.708969   1.716078   -0.12253 H        1 UNL1     0.2100
     50 H         -1.344033   1.0624   3.447291 H        1 UNL1     0.2102
@<TRIPOS>BOND
     1     1     2    1
     2     1     6    1
     3     2     3    1
     4     3     4    1
     5     3    29    1
     6     3    33    1
     7     4     5    1
     8     5     6    1
     9     5     7    1
    10     5    35    1
    11     7     8    1
    12     8     9   ar
    13     8    13   ar
    14     9    10   ar
    15     9    36    1
    16    10    11   ar
    17    10    26    1
    18    11    12   ar
    19    11    14    1
    20    12    13   ar
    21    12    17    1
    22    13    37    1
    23    14    15    1
    24    14    25    2
    25    15    16    1
    26    15    38    1
    27    15    39    1
    28    16    17    1
    29    16    18    1
    30    16    40    1
    31    18    19   ar
    32    18    23   ar
    33    19    20   ar
    34    19    41    1
    35    20    21   ar
    36    20    42    1
    37    21    22   ar
    38    21    24    1
    39    22    23   ar
    40    22    43    1
    41    23    44    1
    42    24    45    1
    43    26    46    1
    44    27    47    1
    45    28    48    1
    46    29    49    1
    47    30    50    1
    48     1    31    1
    49     1    27    1
    50     2    32    1
    51     2    28    1
    52     4    34    1
    53     4    30    1
