@<TRIPOS>MOLECULE
*****
 50 53 0 0 0
SMALL
GASTEIGER

@<TRIPOS>ATOM
     1 C         -0.343842   -1.335538   1.693787 C.3        1 UNL1     0.1889
     2 C         -0.468177   -0.973945   0.189217 C.3        1 UNL1     0.1342
     3 C         -1.907411   -0.950911   -0.347942 C.3        1 UNL1     0.1174
     4 C         -2.801186   -2.008922   0.3039 C.3        1 UNL1     0.1456
     5 C         -2.65404   -2.043181   1.836067 C.3        1 UNL1     0.2326
     6 O         -1.291315   -2.27037   2.188538 O.3        1 UNL1     -0.3076
     7 O         -3.22471   -0.896559   2.492507 O.3        1 UNL1     -0.4605
     8 C         -3.746173   -1.117697   3.754531 C.ar        1 UNL1     0.1310
     9 C         -4.574151   -2.186829   4.113292 C.ar        1 UNL1     0.0226
     10 C         -5.038644   -2.333753   5.425756 C.ar        1 UNL1     0.1343
     11 C         -4.666655   -1.427359   6.417682 C.ar        1 UNL1     0.1007
     12 C         -3.873695   -0.33287   6.062588 C.ar        1 UNL1     0.1389
     13 C         -3.408942   -0.183904   4.742268 C.ar        1 UNL1     0.0229
     14 C         -5.059739   -1.581156   7.837536 C.2        1 UNL1     0.1740
     15 C         -4.390655   -0.645866   8.801438 C.3        1 UNL1     0.0520
     16 C         -4.305023   0.730572   8.156423 C.3        1 UNL1     0.1322
     17 O         -3.537245   0.67708   6.933834 O.3        1 UNL1     -0.4828
     18 C         -5.657563   1.435055   8.025802 C.ar        1 UNL1     -0.0067
     19 C         -6.021094   2.013009   6.792097 C.ar        1 UNL1     -0.0516
     20 C         -7.229656   2.705555   6.651671 C.ar        1 UNL1     -0.0198
     21 C         -8.078032   2.833165   7.736937 C.ar        1 UNL1     0.1169
     22 C         -7.763228   2.246357   8.955704 C.ar        1 UNL1     -0.0198
     23 C         -6.563294   1.537974   9.091379 C.ar        1 UNL1     -0.0516
     24 O         -9.228636   3.546964   7.572614 O.3        1 UNL1     -0.5068
     25 O         -5.818909   -2.459875   8.237534 O.2        1 UNL1     -0.2917
     26 O         -5.843951   -3.39782   5.710053 O.3        1 UNL1     -0.5058
     27 O         -0.234857   -0.20236   2.540438 O.3        1 UNL1     -0.3648
     28 O         0.25929   -1.952205   -0.576619 O.3        1 UNL1     -0.3841
     29 O         -2.458068   0.36524   -0.266361 O.3        1 UNL1     -0.3863
     30 O         -2.459089   -3.308769   -0.224359 O.3        1 UNL1     -0.3829
     31 H         0.613741   -1.854145   1.812786 H        1 UNL1     0.0937
     32 H         0.0   0.0   0.0 H        1 UNL1     0.0671
     33 H         -1.868646   -1.18497   -1.42099 H        1 UNL1     0.0649
     34 H         -3.849616   -1.823628   0.045322 H        1 UNL1     0.0683
     35 H         -3.214377   -2.937682   2.135682 H        1 UNL1     0.1085
     36 H         -4.853341   -2.955711   3.401257 H        1 UNL1     0.0691
     37 H         -2.793835   0.677555   4.491218 H        1 UNL1     0.0691
     38 H         -3.393177   -1.045801   9.012662 H        1 UNL1     0.0385
     39 H         -4.958054   -0.629558   9.738225 H        1 UNL1     0.0385
     40 H         -3.710101   1.365688   8.826659 H        1 UNL1     0.0789
     41 H         -5.368234   1.934647   5.927642 H        1 UNL1     0.0623
     42 H         -7.493205   3.156987   5.69838 H        1 UNL1     0.0654
     43 H         -8.427362   2.327308   9.807926 H        1 UNL1     0.0654
     44 H         -6.354298   1.083392   10.054977 H        1 UNL1     0.0623
     45 H         -8.992662   4.462828   7.35301 H        1 UNL1     0.2921
     46 H         -5.450632   -3.918464   6.428135 H        1 UNL1     0.2922
     47 H         0.505924   0.353865   2.261661 H        1 UNL1     0.2126
     48 H         1.19834   -1.863687   -0.323474 H        1 UNL1     0.2101
     49 H         -2.020147   0.946565   -0.908296 H        1 UNL1     0.2100
     50 H         -2.694966   -3.319442   -1.175128 H        1 UNL1     0.2102
@<TRIPOS>BOND
     1     1     2    1
     2     1     6    1
     3     2     3    1
     4     3     4    1
     5     3    29    1
     6     3    33    1
     7     4     5    1
     8     5     6    1
     9     5     7    1
    10     5    35    1
    11     7     8    1
    12     8     9   ar
    13     8    13   ar
    14     9    10   ar
    15     9    36    1
    16    10    11   ar
    17    10    26    1
    18    11    12   ar
    19    11    14    1
    20    12    13   ar
    21    12    17    1
    22    13    37    1
    23    14    15    1
    24    14    25    2
    25    15    16    1
    26    15    38    1
    27    15    39    1
    28    16    17    1
    29    16    18    1
    30    16    40    1
    31    18    19   ar
    32    18    23   ar
    33    19    20   ar
    34    19    41    1
    35    20    21   ar
    36    20    42    1
    37    21    22   ar
    38    21    24    1
    39    22    23   ar
    40    22    43    1
    41    23    44    1
    42    24    45    1
    43    26    46    1
    44    27    47    1
    45    28    48    1
    46    29    49    1
    47    30    50    1
    48     1    31    1
    49     1    27    1
    50     2    32    1
    51     2    28    1
    52     4    34    1
    53     4    30    1
