@<TRIPOS>MOLECULE
*****
 50 53 0 0 0
SMALL
GASTEIGER

@<TRIPOS>ATOM
     1 C         0.918557   -1.871441   -0.651739 C.3        1 UNL1     0.1889
     2 C         -0.322143   -0.987279   -0.353647 C.3        1 UNL1     0.1342
     3 C         -1.307429   -1.586299   0.661662 C.3        1 UNL1     0.1174
     4 C         -1.408131   -3.110503   0.562765 C.3        1 UNL1     0.1456
     5 C         -0.02856   -3.789101   0.481208 C.3        1 UNL1     0.2326
     6 O         0.701279   -3.274554   -0.630298 O.3        1 UNL1     -0.3076
     7 O         0.70955   -3.737413   1.715648 O.3        1 UNL1     -0.4605
     8 C         1.554825   -4.804422   1.961679 C.ar        1 UNL1     0.1310
     9 C         1.225749   -6.154002   1.795423 C.ar        1 UNL1     0.0226
     10 C         2.159632   -7.164013   2.055506 C.ar        1 UNL1     0.1343
     11 C         3.454019   -6.847593   2.465727 C.ar        1 UNL1     0.1007
     12 C         3.781843   -5.505344   2.67473 C.ar        1 UNL1     0.1389
     13 C         2.841836   -4.490102   2.415689 C.ar        1 UNL1     0.0229
     14 C         4.505441   -7.870035   2.673762 C.2        1 UNL1     0.1740
     15 C         5.891775   -7.3401   2.894659 C.3        1 UNL1     0.0520
     16 C         5.801531   -6.11438   3.793227 C.3        1 UNL1     0.1322
     17 O         4.991145   -5.087575   3.180026 O.3        1 UNL1     -0.4828
     18 C         5.426279   -6.438255   5.241334 C.ar        1 UNL1     -0.0067
     19 C         4.401514   -5.703308   5.872146 C.ar        1 UNL1     -0.0516
     20 C         4.06577   -5.941776   7.210194 C.ar        1 UNL1     -0.0198
     21 C         4.750765   -6.905218   7.928796 C.ar        1 UNL1     0.1169
     22 C         5.742027   -7.668329   7.325554 C.ar        1 UNL1     -0.0198
     23 C         6.065399   -7.442767   5.982197 C.ar        1 UNL1     -0.0516
     24 O         4.421858   -7.083357   9.240469 O.3        1 UNL1     -0.5068
     25 O         4.298621   -9.078166   2.595469 O.2        1 UNL1     -0.2917
     26 O         1.775188   -8.460593   1.874764 O.3        1 UNL1     -0.5058
     27 O         2.06574   -1.507564   0.099494 O.3        1 UNL1     -0.3648
     28 O         -1.04387   -0.784797   -1.5828 O.3        1 UNL1     -0.3841
     29 O         -1.008572   -1.136074   1.984581 O.3        1 UNL1     -0.3863
     30 O         -2.167438   -3.459675   -0.615039 O.3        1 UNL1     -0.3829
     31 H         1.202342   -1.672128   -1.690883 H        1 UNL1     0.0937
     32 H         0.0   0.0   0.0 H        1 UNL1     0.0671
     33 H         -2.305918   -1.186527   0.436005 H        1 UNL1     0.0649
     34 H         -1.955229   -3.505933   1.425736 H        1 UNL1     0.0683
     35 H         -0.262068   -4.83643   0.252181 H        1 UNL1     0.1085
     36 H         0.254116   -6.462628   1.425559 H        1 UNL1     0.0691
     37 H         3.1215   -3.452889   2.587355 H        1 UNL1     0.0691
     38 H         6.307614   -7.081818   1.914916 H        1 UNL1     0.0385
     39 H         6.512306   -8.129531   3.332287 H        1 UNL1     0.0385
     40 H         6.807372   -5.676034   3.844769 H        1 UNL1     0.0789
     41 H         3.855129   -4.935333   5.332399 H        1 UNL1     0.0623
     42 H         3.281748   -5.360222   7.688855 H        1 UNL1     0.0654
     43 H         6.274472   -8.435681   7.874722 H        1 UNL1     0.0654
     44 H         6.837749   -8.064669   5.539979 H        1 UNL1     0.0623
     45 H         4.586117   -6.251532   9.713547 H        1 UNL1     0.2921
     46 H         2.37785   -8.892482   1.248919 H        1 UNL1     0.2922
     47 H         2.276343   -0.574028   -0.041983 H        1 UNL1     0.2126
     48 H         -0.443485   -0.302701   -2.18351 H        1 UNL1     0.2101
     49 H         -1.212448   -0.190718   2.065391 H        1 UNL1     0.2100
     50 H         -3.086536   -3.146503   -0.485057 H        1 UNL1     0.2102
@<TRIPOS>BOND
     1     1     2    1
     2     1     6    1
     3     2     3    1
     4     3     4    1
     5     3    29    1
     6     3    33    1
     7     4     5    1
     8     5     6    1
     9     5     7    1
    10     5    35    1
    11     7     8    1
    12     8     9   ar
    13     8    13   ar
    14     9    10   ar
    15     9    36    1
    16    10    11   ar
    17    10    26    1
    18    11    12   ar
    19    11    14    1
    20    12    13   ar
    21    12    17    1
    22    13    37    1
    23    14    15    1
    24    14    25    2
    25    15    16    1
    26    15    38    1
    27    15    39    1
    28    16    17    1
    29    16    18    1
    30    16    40    1
    31    18    19   ar
    32    18    23   ar
    33    19    20   ar
    34    19    41    1
    35    20    21   ar
    36    20    42    1
    37    21    22   ar
    38    21    24    1
    39    22    23   ar
    40    22    43    1
    41    23    44    1
    42    24    45    1
    43    26    46    1
    44    27    47    1
    45    28    48    1
    46    29    49    1
    47    30    50    1
    48     1    31    1
    49     1    27    1
    50     2    32    1
    51     2    28    1
    52     4    34    1
    53     4    30    1
