@<TRIPOS>MOLECULE
*****
 50 53 0 0 0
SMALL
GASTEIGER

@<TRIPOS>ATOM
     1 C         -0.098666   -1.04285   1.916646 C.3        1 UNL1     0.1889
     2 C         -0.566947   -0.822744   0.453018 C.3        1 UNL1     0.1342
     3 C         -2.069299   -0.542273   0.295729 C.3        1 UNL1     0.1174
     4 C         -2.924858   -1.305036   1.310286 C.3        1 UNL1     0.1456
     5 C         -2.367675   -1.20966   2.742353 C.3        1 UNL1     0.2326
     6 O         -1.025939   -1.690858   2.774928 O.3        1 UNL1     -0.3076
     7 O         -2.514836   0.096343   3.328886 O.3        1 UNL1     -0.4605
     8 C         -2.689795   0.12858   4.700702 C.ar        1 UNL1     0.1310
     9 C         -3.560467   -0.691833   5.426066 C.ar        1 UNL1     0.0226
     10 C         -3.654202   -0.594535   6.819497 C.ar        1 UNL1     0.1343
     11 C         -2.861299   0.310049   7.524389 C.ar        1 UNL1     0.1007
     12 C         -2.018052   1.163037   6.807359 C.ar        1 UNL1     0.1389
     13 C         -1.925923   1.06683   5.406043 C.ar        1 UNL1     0.0229
     14 C         -2.85866   0.396639   9.003121 C.2        1 UNL1     0.1740
     15 C         -1.78848   1.262027   9.600925 C.3        1 UNL1     0.0520
     16 C         -1.643171   2.510859   8.742285 C.3        1 UNL1     0.1322
     17 O         -1.274143   2.162994   7.389555 O.3        1 UNL1     -0.4828
     18 C         -2.828548   3.473272   8.848894 C.ar        1 UNL1     -0.0067
     19 C         -3.406235   3.993457   7.672502 C.ar        1 UNL1     -0.0516
     20 C         -4.46052   4.912405   7.735589 C.ar        1 UNL1     -0.0198
     21 C         -4.940119   5.323761   8.966279 C.ar        1 UNL1     0.1169
     22 C         -4.414152   4.803986   10.141878 C.ar        1 UNL1     -0.0198
     23 C         -3.37219   3.87104   10.078783 C.ar        1 UNL1     -0.0516
     24 O         -5.942396   6.248603   8.988842 O.3        1 UNL1     -0.5068
     25 O         -3.618728   -0.249477   9.719582 O.2        1 UNL1     -0.2917
     26 O         -4.523613   -1.422847   7.467269 O.3        1 UNL1     -0.5058
     27 O         0.44558   0.121557   2.517263 O.3        1 UNL1     -0.3648
     28 O         -0.271467   -2.011146   -0.304014 O.3        1 UNL1     -0.3841
     29 O         -2.325959   0.863511   0.301179 O.3        1 UNL1     -0.3863
     30 O         -2.985758   -2.696299   0.927703 O.3        1 UNL1     -0.3829
     31 H         0.742998   -1.742745   1.873905 H        1 UNL1     0.0937
     32 H         0.0   0.0   0.0 H        1 UNL1     0.0671
     33 H         -2.37283   -0.890415   -0.701461 H        1 UNL1     0.0649
     34 H         -3.951731   -0.923308   1.295583 H        1 UNL1     0.0683
     35 H         -2.976467   -1.923607   3.311151 H        1 UNL1     0.1085
     36 H         -4.162289   -1.4533   4.942229 H        1 UNL1     0.0691
     37 H         -1.262692   1.743178   4.871093 H        1 UNL1     0.0691
     38 H         -0.86043   0.680551   9.612573 H        1 UNL1     0.0385
     39 H         -2.055968   1.5001   10.636081 H        1 UNL1     0.0385
     40 H         -0.77954   3.069766   9.127364 H        1 UNL1     0.0789
     41 H         -3.041623   3.693343   6.694422 H        1 UNL1     0.0623
     42 H         -4.889639   5.315336   6.821524 H        1 UNL1     0.0654
     43 H         -4.792304   5.107852   11.11068 H        1 UNL1     0.0654
     44 H         -2.99232   3.47776   11.0168 H        1 UNL1     0.0623
     45 H         -5.62126   7.059354   8.561909 H        1 UNL1     0.2921
     46 H         -4.043567   -1.936947   8.135602 H        1 UNL1     0.2922
     47 H         1.172247   0.466924   1.980108 H        1 UNL1     0.2126
     48 H         0.699353   -2.116448   -0.291685 H        1 UNL1     0.2101
     49 H         -1.984671   1.264452   -0.514028 H        1 UNL1     0.2100
     50 H         -3.473714   -2.754875   0.080248 H        1 UNL1     0.2102
@<TRIPOS>BOND
     1     1     2    1
     2     1     6    1
     3     2     3    1
     4     3     4    1
     5     3    29    1
     6     3    33    1
     7     4     5    1
     8     5     6    1
     9     5     7    1
    10     5    35    1
    11     7     8    1
    12     8     9   ar
    13     8    13   ar
    14     9    10   ar
    15     9    36    1
    16    10    11   ar
    17    10    26    1
    18    11    12   ar
    19    11    14    1
    20    12    13   ar
    21    12    17    1
    22    13    37    1
    23    14    15    1
    24    14    25    2
    25    15    16    1
    26    15    38    1
    27    15    39    1
    28    16    17    1
    29    16    18    1
    30    16    40    1
    31    18    19   ar
    32    18    23   ar
    33    19    20   ar
    34    19    41    1
    35    20    21   ar
    36    20    42    1
    37    21    22   ar
    38    21    24    1
    39    22    23   ar
    40    22    43    1
    41    23    44    1
    42    24    45    1
    43    26    46    1
    44    27    47    1
    45    28    48    1
    46    29    49    1
    47    30    50    1
    48     1    31    1
    49     1    27    1
    50     2    32    1
    51     2    28    1
    52     4    34    1
    53     4    30    1
