@<TRIPOS>MOLECULE
*****
 50 53 0 0 0
SMALL
GASTEIGER

@<TRIPOS>ATOM
     1 C         -0.370886   -1.397995   1.636721 C.3        1 UNL1     0.1889
     2 C         -0.487906   -0.971284   0.148715 C.3        1 UNL1     0.1342
     3 C         -1.9264   -0.896507   -0.38571 C.3        1 UNL1     0.1174
     4 C         -2.841504   -1.962472   0.222089 C.3        1 UNL1     0.1456
     5 C         -2.695009   -2.063823   1.751347 C.3        1 UNL1     0.2326
     6 O         -1.337177   -2.333247   2.092771 O.3        1 UNL1     -0.3076
     7 O         -3.242176   -0.934311   2.455713 O.3        1 UNL1     -0.4605
     8 C         -3.77138   -1.198093   3.706269 C.ar        1 UNL1     0.1310
     9 C         -4.614956   -2.269279   4.019702 C.ar        1 UNL1     0.0226
     10 C         -5.086395   -2.461678   5.323784 C.ar        1 UNL1     0.1343
     11 C         -4.706114   -1.600317   6.352027 C.ar        1 UNL1     0.1007
     12 C         -3.897227   -0.503467   6.043147 C.ar        1 UNL1     0.1389
     13 C         -3.42547   -0.308722   4.731297 C.ar        1 UNL1     0.0229
     14 C         -5.106655   -1.804792   7.763378 C.2        1 UNL1     0.1740
     15 C         -4.428812   -0.917469   8.765743 C.3        1 UNL1     0.0520
     16 C         -4.322302   0.482107   8.175998 C.3        1 UNL1     0.1322
     17 O         -3.550633   0.466611   6.954787 O.3        1 UNL1     -0.4828
     18 C         -5.664786   1.209426   8.068903 C.ar        1 UNL1     -0.0067
     19 C         -5.687037   2.572998   7.710588 C.ar        1 UNL1     -0.0516
     20 C         -6.893791   3.280107   7.649725 C.ar        1 UNL1     -0.0198
     21 C         -8.081642   2.638346   7.951358 C.ar        1 UNL1     0.1169
     22 C         -8.095454   1.287816   8.274958 C.ar        1 UNL1     -0.0198
     23 C         -6.890744   0.575859   8.317929 C.ar        1 UNL1     -0.0516
     24 O         -9.233032   3.368829   7.918251 O.3        1 UNL1     -0.5068
     25 O         -5.87904   -2.688292   8.125779 O.2        1 UNL1     -0.2917
     26 O         -5.90695   -3.525166   5.563087 O.3        1 UNL1     -0.5058
     27 O         -0.238803   -0.303703   2.529955 O.3        1 UNL1     -0.3648
     28 O         0.219448   -1.931229   -0.658046 O.3        1 UNL1     -0.3841
     29 O         -2.450132   0.426007   -0.248624 O.3        1 UNL1     -0.3863
     30 O         -2.525978   -3.245758   -0.360414 O.3        1 UNL1     -0.3829
     31 H         0.575942   -1.940505   1.733049 H        1 UNL1     0.0937
     32 H         0.0   0.0   0.0 H        1 UNL1     0.0671
     33 H         -1.892464   -1.086184   -1.467649 H        1 UNL1     0.0649
     34 H         -3.885956   -1.745223   -0.027561 H        1 UNL1     0.0683
     35 H         -3.273433   -2.958496   2.013771 H        1 UNL1     0.1085
     36 H         -4.90168   -3.005568   3.276877 H        1 UNL1     0.0691
     37 H         -2.797936   0.553593   4.516568 H        1 UNL1     0.0691
     38 H         -3.43759   -1.338891   8.964261 H        1 UNL1     0.0385
     39 H         -4.999526   -0.930535   9.700566 H        1 UNL1     0.0385
     40 H         -3.721507   1.08213   8.872803 H        1 UNL1     0.0789
     41 H         -4.767252   3.101781   7.478136 H        1 UNL1     0.0623
     42 H         -6.89663   4.334265   7.383727 H        1 UNL1     0.0654
     43 H         -9.021553   0.771708   8.498303 H        1 UNL1     0.0654
     44 H         -6.939808   -0.480476   8.564087 H        1 UNL1     0.0623
     45 H         -9.188572   4.04316   8.6154 H        1 UNL1     0.2921
     46 H         -5.63538   -3.964993   6.384193 H        1 UNL1     0.2922
     47 H         0.506396   0.254596   2.26758 H        1 UNL1     0.2126
     48 H         1.17162   -1.779382   -0.502991 H        1 UNL1     0.2101
     49 H         -2.143382   0.980281   -0.983796 H        1 UNL1     0.2100
     50 H         -2.783035   -3.219344   -1.305367 H        1 UNL1     0.2102
@<TRIPOS>BOND
     1     1     2    1
     2     1     6    1
     3     2     3    1
     4     3     4    1
     5     3    29    1
     6     3    33    1
     7     4     5    1
     8     5     6    1
     9     5     7    1
    10     5    35    1
    11     7     8    1
    12     8     9   ar
    13     8    13   ar
    14     9    10   ar
    15     9    36    1
    16    10    11   ar
    17    10    26    1
    18    11    12   ar
    19    11    14    1
    20    12    13   ar
    21    12    17    1
    22    13    37    1
    23    14    15    1
    24    14    25    2
    25    15    16    1
    26    15    38    1
    27    15    39    1
    28    16    17    1
    29    16    18    1
    30    16    40    1
    31    18    19   ar
    32    18    23   ar
    33    19    20   ar
    34    19    41    1
    35    20    21   ar
    36    20    42    1
    37    21    22   ar
    38    21    24    1
    39    22    23   ar
    40    22    43    1
    41    23    44    1
    42    24    45    1
    43    26    46    1
    44    27    47    1
    45    28    48    1
    46    29    49    1
    47    30    50    1
    48     1    31    1
    49     1    27    1
    50     2    32    1
    51     2    28    1
    52     4    34    1
    53     4    30    1
