@<TRIPOS>MOLECULE
*****
 50 53 0 0 0
SMALL
GASTEIGER

@<TRIPOS>ATOM
     1 C         1.547125   0.045735   1.541142 C.3        1 UNL1     0.1889
     2 C         0.064414   0.124641   1.088061 C.3        1 UNL1     0.1342
     3 C         -0.660281   1.419005   1.48794 C.3        1 UNL1     0.1174
     4 C         -0.201123   1.961744   2.843567 C.3        1 UNL1     0.1456
     5 C         1.331902   1.976314   2.984942 C.3        1 UNL1     0.2326
     6 O         1.851163   0.663915   2.782838 O.3        1 UNL1     -0.3076
     7 O         1.973613   2.971018   2.166351 O.3        1 UNL1     -0.4605
     8 C         1.290389   3.349267   1.024571 C.ar        1 UNL1     0.1310
     9 C         0.5094   4.502449   0.892173 C.ar        1 UNL1     0.0226
     10 C         -0.131309   4.808027   -0.314482 C.ar        1 UNL1     0.1343
     11 C         0.012975   3.979268   -1.426319 C.ar        1 UNL1     0.1007
     12 C         0.756817   2.803665   -1.294257 C.ar        1 UNL1     0.1389
     13 C         1.398782   2.495276   -0.080087 C.ar        1 UNL1     0.0229
     14 C         -0.572762   4.297244   -2.749179 C.2        1 UNL1     0.1740
     15 C         -0.13393   3.416718   -3.882161 C.3        1 UNL1     0.0520
     16 C         -0.067291   1.981361   -3.378906 C.3        1 UNL1     0.1322
     17 O         0.875471   1.862761   -2.290694 O.3        1 UNL1     -0.4828
     18 C         -1.438875   1.361786   -3.100323 C.ar        1 UNL1     -0.0067
     19 C         -1.657271   0.68083   -1.88508 C.ar        1 UNL1     -0.0516
     20 C         -2.884583   0.062119   -1.618879 C.ar        1 UNL1     -0.0198
     21 C         -3.896674   0.110821   -2.560754 C.ar        1 UNL1     0.1169
     22 C         -3.723216   0.802308   -3.752642 C.ar        1 UNL1     -0.0198
     23 C         -2.502327   1.43681   -4.011277 C.ar        1 UNL1     -0.0516
     24 O         -5.065074   -0.535534   -2.282427 O.3        1 UNL1     -0.5068
     25 O         -1.307796   5.260674   -2.949213 O.2        1 UNL1     -0.2917
     26 O         -0.879306   5.947371   -0.377565 O.3        1 UNL1     -0.5058
     27 O         2.468154   0.42154   0.529578 O.3        1 UNL1     -0.3648
     28 O         -0.653995   -0.970639   1.68552 O.3        1 UNL1     -0.3841
     29 O         -0.574025   2.391529   0.444441 O.3        1 UNL1     -0.3863
     30 O         -0.756356   1.141816   3.894816 O.3        1 UNL1     -0.3829
     31 H         1.762895   -1.012863   1.722509 H        1 UNL1     0.0937
     32 H         0.0   0.0   0.0 H        1 UNL1     0.0671
     33 H         -1.73044   1.188221   1.583955 H        1 UNL1     0.0649
     34 H         -0.587523   2.976389   2.990508 H        1 UNL1     0.0683
     35 H         1.497848   2.225942   4.040417 H        1 UNL1     0.1085
     36 H         0.403603   5.215594   1.702328 H        1 UNL1     0.0691
     37 H         1.971132   1.573363   -0.002725 H        1 UNL1     0.0691
     38 H         0.850639   3.766081   -4.210943 H        1 UNL1     0.0385
     39 H         -0.833674   3.530666   -4.717117 H        1 UNL1     0.0385
     40 H         0.366897   1.375335   -4.185586 H        1 UNL1     0.0789
     41 H         -0.875631   0.620522   -1.13338 H        1 UNL1     0.0623
     42 H         -3.036665   -0.47006   -0.683107 H        1 UNL1     0.0654
     43 H         -4.514306   0.859509   -4.490759 H        1 UNL1     0.0654
     44 H         -2.405265   1.97698   -4.948101 H        1 UNL1     0.0623
     45 H         -4.892588   -1.198048   -1.593921 H        1 UNL1     0.2921
     46 H         -0.372019   6.688196   -0.009799 H        1 UNL1     0.2922
     47 H         2.62645   1.375461   0.558518 H        1 UNL1     0.2126
     48 H         -1.50974   -0.61127   1.989308 H        1 UNL1     0.2101
     49 H         -0.849541   3.259842   0.778982 H        1 UNL1     0.2100
     50 H         -0.021053   0.645197   4.310041 H        1 UNL1     0.2102
@<TRIPOS>BOND
     1     1     2    1
     2     1     6    1
     3     2     3    1
     4     3     4    1
     5     3    29    1
     6     3    33    1
     7     4     5    1
     8     5     6    1
     9     5     7    1
    10     5    35    1
    11     7     8    1
    12     8     9   ar
    13     8    13   ar
    14     9    10   ar
    15     9    36    1
    16    10    11   ar
    17    10    26    1
    18    11    12   ar
    19    11    14    1
    20    12    13   ar
    21    12    17    1
    22    13    37    1
    23    14    15    1
    24    14    25    2
    25    15    16    1
    26    15    38    1
    27    15    39    1
    28    16    17    1
    29    16    18    1
    30    16    40    1
    31    18    19   ar
    32    18    23   ar
    33    19    20   ar
    34    19    41    1
    35    20    21   ar
    36    20    42    1
    37    21    22   ar
    38    21    24    1
    39    22    23   ar
    40    22    43    1
    41    23    44    1
    42    24    45    1
    43    26    46    1
    44    27    47    1
    45    28    48    1
    46    29    49    1
    47    30    50    1
    48     1    31    1
    49     1    27    1
    50     2    32    1
    51     2    28    1
    52     4    34    1
    53     4    30    1
