@<TRIPOS>MOLECULE
*****
 50 53 0 0 0
SMALL
GASTEIGER

@<TRIPOS>ATOM
     1 C         -0.676747   -1.063623   1.783683 C.3        1 UNL1     0.1889
     2 C         -0.548837   -0.918199   0.243413 C.3        1 UNL1     0.1342
     3 C         -1.885582   -0.918674   -0.513936 C.3        1 UNL1     0.1174
     4 C         -2.929717   -1.837322   0.125585 C.3        1 UNL1     0.1456
     5 C         -3.019775   -1.655944   1.651808 C.3        1 UNL1     0.2326
     6 O         -1.742594   -1.881083   2.244252 O.3        1 UNL1     -0.3076
     7 O         -3.614196   -0.406042   2.046433 O.3        1 UNL1     -0.4605
     8 C         -4.349666   -0.427621   3.217819 C.ar        1 UNL1     0.1310
     9 C         -5.293782   -1.400276   3.564068 C.ar        1 UNL1     0.0226
     10 C         -5.976615   -1.343876   4.784912 C.ar        1 UNL1     0.1343
     11 C         -5.714293   -0.325536   5.700342 C.ar        1 UNL1     0.1007
     12 C         -4.80358   0.674215   5.348373 C.ar        1 UNL1     0.1389
     13 C         -4.119064   0.618736   4.119638 C.ar        1 UNL1     0.0229
     14 C         -6.344977   -0.264112   7.03923 C.2        1 UNL1     0.1740
     15 C         -5.783752   0.766214   7.974646 C.3        1 UNL1     0.0520
     16 C         -5.502937   2.035044   7.181443 C.3        1 UNL1     0.1322
     17 O         -4.549571   1.779815   6.126444 O.3        1 UNL1     -0.4828
     18 C         -6.766318   2.771892   6.730171 C.ar        1 UNL1     -0.0067
     19 C         -6.876683   3.2015   5.391713 C.ar        1 UNL1     -0.0516
     20 C         -7.997566   3.919357   4.957817 C.ar        1 UNL1     -0.0198
     21 C         -9.009186   4.219616   5.852411 C.ar        1 UNL1     0.1169
     22 C         -8.944737   3.781321   7.168687 C.ar        1 UNL1     -0.0198
     23 C         -7.832521   3.047517   7.598294 C.ar        1 UNL1     -0.0516
     24 O         -10.067661   4.953094   5.402921 O.3        1 UNL1     -0.5068
     25 O         -7.215661   -1.045599   7.412956 O.2        1 UNL1     -0.2917
     26 O         -6.885829   -2.32281   5.061685 O.3        1 UNL1     -0.5058
     27 O         -0.630407   0.174821   2.474259 O.3        1 UNL1     -0.3648
     28 O         0.226974   -2.023282   -0.256203 O.3        1 UNL1     -0.3841
     29 O         -2.362647   0.415274   -0.701348 O.3        1 UNL1     -0.3863
     30 O         -2.589452   -3.211668   -0.159165 O.3        1 UNL1     -0.3829
     31 H         0.218872   -1.595329   2.123145 H        1 UNL1     0.0937
     32 H         0.0   0.0   -0.0 H        1 UNL1     0.0671
     33 H         -1.698011   -1.306212   -1.52505 H        1 UNL1     0.0649
     34 H         -3.913623   -1.651907   -0.319332 H        1 UNL1     0.0683
     35 H         -3.671589   -2.476209   1.977665 H        1 UNL1     0.1085
     36 H         -5.50182   -2.247745   2.920145 H        1 UNL1     0.0691
     37 H         -3.415814   1.409956   3.868829 H        1 UNL1     0.0691
     38 H         -4.863088   0.357068   8.404184 H        1 UNL1     0.0385
     39 H         -6.495306   0.936466   8.789805 H        1 UNL1     0.0385
     40 H         -4.986066   2.73085   7.856142 H        1 UNL1     0.0789
     41 H         -6.091948   2.986344   4.672304 H        1 UNL1     0.0623
     42 H         -8.065478   4.255405   3.926085 H        1 UNL1     0.0654
     43 H         -9.738305   3.997937   7.873837 H        1 UNL1     0.0654
     44 H         -7.820209   2.711906   8.630795 H        1 UNL1     0.0623
     45 H         -9.740591   5.822828   5.121311 H        1 UNL1     0.2921
     46 H         -6.651119   -2.755279   5.897923 H        1 UNL1     0.2922
     47 H         0.170641   0.661692   2.235223 H        1 UNL1     0.2126
     48 H         1.12015   -1.934605   0.128642 H        1 UNL1     0.2101
     49 H         -1.798208   0.881132   -1.33867 H        1 UNL1     0.2100
     50 H         -2.678097   -3.350356   -1.124888 H        1 UNL1     0.2102
@<TRIPOS>BOND
     1     1     2    1
     2     1     6    1
     3     2     3    1
     4     3     4    1
     5     3    29    1
     6     3    33    1
     7     4     5    1
     8     5     6    1
     9     5     7    1
    10     5    35    1
    11     7     8    1
    12     8     9   ar
    13     8    13   ar
    14     9    10   ar
    15     9    36    1
    16    10    11   ar
    17    10    26    1
    18    11    12   ar
    19    11    14    1
    20    12    13   ar
    21    12    17    1
    22    13    37    1
    23    14    15    1
    24    14    25    2
    25    15    16    1
    26    15    38    1
    27    15    39    1
    28    16    17    1
    29    16    18    1
    30    16    40    1
    31    18    19   ar
    32    18    23   ar
    33    19    20   ar
    34    19    41    1
    35    20    21   ar
    36    20    42    1
    37    21    22   ar
    38    21    24    1
    39    22    23   ar
    40    22    43    1
    41    23    44    1
    42    24    45    1
    43    26    46    1
    44    27    47    1
    45    28    48    1
    46    29    49    1
    47    30    50    1
    48     1    31    1
    49     1    27    1
    50     2    32    1
    51     2    28    1
    52     4    34    1
    53     4    30    1
