@<TRIPOS>MOLECULE
*****
 50 53 0 0 0
SMALL
GASTEIGER

@<TRIPOS>ATOM
     1 C         -0.699927   -1.821046   0.982192 C.3        1 UNL1     0.1889
     2 C         -0.00453   -1.080218   -0.191495 C.3        1 UNL1     0.1342
     3 C         -0.625125   -1.341733   -1.572414 C.3        1 UNL1     0.1174
     4 C         -1.159285   -2.76836   -1.722501 C.3        1 UNL1     0.1456
     5 C         -1.997908   -3.215091   -0.511093 C.3        1 UNL1     0.2326
     6 O         -1.224995   -3.105802   0.682025 O.3        1 UNL1     -0.3076
     7 O         -3.273216   -2.554095   -0.421688 O.3        1 UNL1     -0.4605
     8 C         -4.300365   -3.29176   0.138978 C.ar        1 UNL1     0.1310
     9 C         -4.605271   -4.62172   -0.170116 C.ar        1 UNL1     0.0226
     10 C         -5.658132   -5.289623   0.466508 C.ar        1 UNL1     0.1343
     11 C         -6.417289   -4.650541   1.445843 C.ar        1 UNL1     0.1007
     12 C         -6.148609   -3.309736   1.73366 C.ar        1 UNL1     0.1389
     13 C         -5.091604   -2.637574   1.091501 C.ar        1 UNL1     0.0229
     14 C         -7.486579   -5.334258   2.209585 C.2        1 UNL1     0.1740
     15 C         -8.045546   -4.567937   3.372279 C.3        1 UNL1     0.0520
     16 C         -8.184432   -3.10759   2.964782 C.3        1 UNL1     0.1322
     17 O         -6.901243   -2.552451   2.601029 O.3        1 UNL1     -0.4828
     18 C         -9.296882   -2.855814   1.944102 C.ar        1 UNL1     -0.0067
     19 C         -9.023011   -2.081192   0.798166 C.ar        1 UNL1     -0.0516
     20 C         -10.02959   -1.792279   -0.130969 C.ar        1 UNL1     -0.0198
     21 C         -11.312903   -2.264907   0.077739 C.ar        1 UNL1     0.1169
     22 C         -11.605764   -3.058302   1.179372 C.ar        1 UNL1     -0.0198
     23 C         -10.595093   -3.362786   2.099094 C.ar        1 UNL1     -0.0516
     24 O         -12.275777   -1.931604   -0.829004 O.3        1 UNL1     -0.5068
     25 O         -7.853848   -6.483187   1.978149 O.2        1 UNL1     -0.2917
     26 O         -5.904314   -6.585791   0.118762 O.3        1 UNL1     -0.5058
     27 O         -1.641725   -1.019769   1.67772 O.3        1 UNL1     -0.3648
     28 O         1.368846   -1.507993   -0.251083 O.3        1 UNL1     -0.3841
     29 O         -1.60399   -0.348546   -1.884722 O.3        1 UNL1     -0.3863
     30 O         -0.047277   -3.676714   -1.877483 O.3        1 UNL1     -0.3829
     31 H         0.077678   -2.029419   1.725152 H        1 UNL1     0.0937
     32 H         0.0   0.0   0.0 H        1 UNL1     0.0671
     33 H         0.166404   -1.217967   -2.324666 H        1 UNL1     0.0649
     34 H         -1.766274   -2.846758   -2.631247 H        1 UNL1     0.0683
     35 H         -2.165545   -4.285286   -0.685618 H        1 UNL1     0.1085
     36 H         -4.017323   -5.190954   -0.881741 H        1 UNL1     0.0691
     37 H         -4.903632   -1.593518   1.332555 H        1 UNL1     0.0691
     38 H         -7.3477   -4.679864   4.208945 H        1 UNL1     0.0385
     39 H         -9.004383   -5.009038   3.665265 H        1 UNL1     0.0385
     40 H         -8.481268   -2.547951   3.862119 H        1 UNL1     0.0789
     41 H         -8.025905   -1.690876   0.616277 H        1 UNL1     0.0623
     42 H         -9.808647   -1.183932   -1.00453 H        1 UNL1     0.0654
     43 H         -12.603842   -3.446168   1.344632 H        1 UNL1     0.0654
     44 H         -10.856913   -3.994086   2.94275 H        1 UNL1     0.0623
     45 H         -12.358355   -0.964356   -0.847111 H        1 UNL1     0.2921
     46 H         -5.863399   -7.146304   0.909687 H        1 UNL1     0.2922
     47 H         -1.220502   -0.209965   1.998108 H        1 UNL1     0.2126
     48 H         1.778513   -1.2523   0.597755 H        1 UNL1     0.2101
     49 H         -1.170145   0.506192   -2.036363 H        1 UNL1     0.2100
     50 H         0.395509   -3.469186   -2.726356 H        1 UNL1     0.2102
@<TRIPOS>BOND
     1     1     2    1
     2     1     6    1
     3     2     3    1
     4     3     4    1
     5     3    29    1
     6     3    33    1
     7     4     5    1
     8     5     6    1
     9     5     7    1
    10     5    35    1
    11     7     8    1
    12     8     9   ar
    13     8    13   ar
    14     9    10   ar
    15     9    36    1
    16    10    11   ar
    17    10    26    1
    18    11    12   ar
    19    11    14    1
    20    12    13   ar
    21    12    17    1
    22    13    37    1
    23    14    15    1
    24    14    25    2
    25    15    16    1
    26    15    38    1
    27    15    39    1
    28    16    17    1
    29    16    18    1
    30    16    40    1
    31    18    19   ar
    32    18    23   ar
    33    19    20   ar
    34    19    41    1
    35    20    21   ar
    36    20    42    1
    37    21    22   ar
    38    21    24    1
    39    22    23   ar
    40    22    43    1
    41    23    44    1
    42    24    45    1
    43    26    46    1
    44    27    47    1
    45    28    48    1
    46    29    49    1
    47    30    50    1
    48     1    31    1
    49     1    27    1
    50     2    32    1
    51     2    28    1
    52     4    34    1
    53     4    30    1
