@<TRIPOS>MOLECULE
*****
 50 53 0 0 0
SMALL
GASTEIGER

@<TRIPOS>ATOM
     1 C         -0.275963   -1.476532   1.585718 C.3        1 UNL1     0.1889
     2 C         -0.466521   -0.984961   0.125586 C.3        1 UNL1     0.1342
     3 C         -1.928704   -0.909919   -0.340091 C.3        1 UNL1     0.1174
     4 C         -2.799746   -2.017285   0.25836 C.3        1 UNL1     0.1456
     5 C         -2.582595   -2.185251   1.773285 C.3        1 UNL1     0.2326
     6 O         -1.206911   -2.447321   2.041019 O.3        1 UNL1     -0.3076
     7 O         -3.113581   -1.097962   2.552501 O.3        1 UNL1     -0.4605
     8 C         -3.581646   -1.426755   3.812 C.ar        1 UNL1     0.1310
     9 C         -4.400199   -2.520907   4.112171 C.ar        1 UNL1     0.0226
     10 C         -4.808705   -2.780306   5.425844 C.ar        1 UNL1     0.1343
     11 C         -4.388618   -1.964657   6.475646 C.ar        1 UNL1     0.1007
     12 C         -3.60473   -0.845473   6.182849 C.ar        1 UNL1     0.1389
     13 C         -3.196289   -0.583356   4.861523 C.ar        1 UNL1     0.0229
     14 C         -4.721205   -2.240435   7.892504 C.2        1 UNL1     0.1740
     15 C         -4.005325   -1.394329   8.904023 C.3        1 UNL1     0.0520
     16 C         -3.938779   0.0328   8.377876 C.3        1 UNL1     0.1322
     17 O         -3.224682   0.083936   7.123077 O.3        1 UNL1     -0.4828
     18 C         -5.291181   0.749481   8.367787 C.ar        1 UNL1     -0.0067
     19 C         -5.341202   2.130158   8.08593 C.ar        1 UNL1     -0.0516
     20 C         -6.555835   2.8257   8.1151 C.ar        1 UNL1     -0.0198
     21 C         -7.723745   2.15498   8.431245 C.ar        1 UNL1     0.1169
     22 C         -7.711363   0.788799   8.680714 C.ar        1 UNL1     -0.0198
     23 C         -6.499497   0.089364   8.633516 C.ar        1 UNL1     -0.0516
     24 O         -8.882088   2.872985   8.487036 O.3        1 UNL1     -0.5068
     25 O         -5.46803   -3.148664   8.247266 O.2        1 UNL1     -0.2917
     26 O         -5.607782   -3.86299   5.651358 O.3        1 UNL1     -0.5058
     27 O         -0.119393   -0.421717   2.521474 O.3        1 UNL1     -0.3648
     28 O         0.217367   -1.895596   -0.755179 O.3        1 UNL1     -0.3841
     29 O         -2.464808   0.39619   -0.119172 O.3        1 UNL1     -0.3863
     30 O         -2.492381   -3.267515   -0.395964 O.3        1 UNL1     -0.3829
     31 H         0.682028   -2.007091   1.614666 H        1 UNL1     0.0937
     32 H         0.0   0.0   0.0 H        1 UNL1     0.0671
     33 H         -1.941121   -1.049885   -1.430034 H        1 UNL1     0.0649
     34 H         -3.857485   -1.806291   0.065825 H        1 UNL1     0.0683
     35 H         -3.135486   -3.10033   2.019905 H        1 UNL1     0.1085
     36 H         -4.714657   -3.224169   3.348849 H        1 UNL1     0.0691
     37 H         -2.587091   0.295088   4.659762 H        1 UNL1     0.0691
     38 H         -3.002244   -1.813715   9.036201 H        1 UNL1     0.0385
     39 H         -4.53177   -1.458151   9.862439 H        1 UNL1     0.0385
     40 H         -3.311539   0.605625   9.074268 H        1 UNL1     0.0789
     41 H         -4.437099   2.681256   7.843981 H        1 UNL1     0.0623
     42 H         -6.579683   3.892647   7.907575 H        1 UNL1     0.0654
     43 H         -8.622281   0.250779   8.914539 H        1 UNL1     0.0654
     44 H         -6.528335   -0.979272   8.823332 H        1 UNL1     0.0623
     45 H         -8.656665   3.810267   8.602812 H        1 UNL1     0.2921
     46 H         -5.287754   -4.344596   6.430492 H        1 UNL1     0.2922
     47 H         -0.982901   -0.133968   2.849216 H        1 UNL1     0.2126
     48 H         -0.371485   -2.03942   -1.520881 H        1 UNL1     0.2101
     49 H         -2.97733   0.407517   0.704835 H        1 UNL1     0.2100
     50 H         -2.934674   -3.26705   -1.270086 H        1 UNL1     0.2102
@<TRIPOS>BOND
     1     1     2    1
     2     1     6    1
     3     2     3    1
     4     3     4    1
     5     3    29    1
     6     3    33    1
     7     4     5    1
     8     5     6    1
     9     5     7    1
    10     5    35    1
    11     7     8    1
    12     8     9   ar
    13     8    13   ar
    14     9    10   ar
    15     9    36    1
    16    10    11   ar
    17    10    26    1
    18    11    12   ar
    19    11    14    1
    20    12    13   ar
    21    12    17    1
    22    13    37    1
    23    14    15    1
    24    14    25    2
    25    15    16    1
    26    15    38    1
    27    15    39    1
    28    16    17    1
    29    16    18    1
    30    16    40    1
    31    18    19   ar
    32    18    23   ar
    33    19    20   ar
    34    19    41    1
    35    20    21   ar
    36    20    42    1
    37    21    22   ar
    38    21    24    1
    39    22    23   ar
    40    22    43    1
    41    23    44    1
    42    24    45    1
    43    26    46    1
    44    27    47    1
    45    28    48    1
    46    29    49    1
    47    30    50    1
    48     1    31    1
    49     1    27    1
    50     2    32    1
    51     2    28    1
    52     4    34    1
    53     4    30    1
