@<TRIPOS>MOLECULE
*****
 50 53 0 0 0
SMALL
GASTEIGER

@<TRIPOS>ATOM
     1 C         -0.877948   0.528941   1.92879 C.3        1 UNL1     0.1889
     2 C         -0.40098   0.892154   0.496828 C.3        1 UNL1     0.1342
     3 C         0.647219   2.013741   0.435278 C.3        1 UNL1     0.1174
     4 C         0.436675   3.082514   1.510691 C.3        1 UNL1     0.1456
     5 C         0.178671   2.476688   2.90237 C.3        1 UNL1     0.2326
     6 O         -0.948983   1.605645   2.851861 O.3        1 UNL1     -0.3076
     7 O         1.342561   1.862372   3.484863 O.3        1 UNL1     -0.4605
     8 C         1.432132   1.919617   4.864075 C.ar        1 UNL1     0.1310
     9 C         0.651217   2.731378   5.693845 C.ar        1 UNL1     0.0226
     10 C         0.805785   2.705375   7.085008 C.ar        1 UNL1     0.1343
     11 C         1.729466   1.848663   7.68225 C.ar        1 UNL1     0.1007
     12 C         2.543561   1.063277   6.861762 C.ar        1 UNL1     0.1389
     13 C         2.389783   1.091543   5.462839 C.ar        1 UNL1     0.0229
     14 C         1.875736   1.719452   9.150604 C.2        1 UNL1     0.1740
     15 C         2.752916   0.595889   9.619338 C.3        1 UNL1     0.0520
     16 C         3.96436   0.515024   8.700742 C.3        1 UNL1     0.1322
     17 O         3.558103   0.265126   7.337079 O.3        1 UNL1     -0.4828
     18 C         4.94311   1.679879   8.867732 C.ar        1 UNL1     -0.0067
     19 C         4.834359   2.802543   8.021558 C.ar        1 UNL1     -0.0516
     20 C         5.742409   3.863901   8.116033 C.ar        1 UNL1     -0.0198
     21 C         6.765724   3.811381   9.045493 C.ar        1 UNL1     0.1169
     22 C         6.878862   2.734549   9.915246 C.ar        1 UNL1     -0.0198
     23 C         5.959906   1.681517   9.833402 C.ar        1 UNL1     -0.0516
     24 O         7.653577   4.84614   9.082816 O.3        1 UNL1     -0.5068
     25 O         1.267406   2.420486   9.954949 O.2        1 UNL1     -0.2917
     26 O         0.013827   3.522546   7.837749 O.3        1 UNL1     -0.5058
     27 O         -0.205424   -0.591306   2.48155 O.3        1 UNL1     -0.3648
     28 O         -1.540848   1.328738   -0.266586 O.3        1 UNL1     -0.3841
     29 O         1.969845   1.472713   0.444153 O.3        1 UNL1     -0.3863
     30 O         -0.692776   3.905373   1.146092 O.3        1 UNL1     -0.3829
     31 H         -1.919079   0.200532   1.837838 H        1 UNL1     0.0937
     32 H         0.0   0.0   0.0 H        1 UNL1     0.0671
     33 H         0.544035   2.516199   -0.536632 H        1 UNL1     0.0649
     34 H         1.310763   3.741297   1.559425 H        1 UNL1     0.0683
     35 H         -0.111266   3.338518   3.516426 H        1 UNL1     0.1085
     36 H         -0.12261   3.377825   5.294572 H        1 UNL1     0.0691
     37 H         3.036709   0.47131   4.846163 H        1 UNL1     0.0691
     38 H         2.162345   -0.325464   9.5762 H        1 UNL1     0.0385
     39 H         3.035536   0.772478   10.662756 H        1 UNL1     0.0385
     40 H         4.52897   -0.382366   8.987842 H        1 UNL1     0.0789
     41 H         4.045414   2.863587   7.277588 H        1 UNL1     0.0623
     42 H         5.655138   4.718658   7.44986 H        1 UNL1     0.0654
     43 H         7.667421   2.690183   10.656945 H        1 UNL1     0.0654
     44 H         6.071926   0.861074   10.535662 H        1 UNL1     0.0623
     45 H         7.901712   5.070375   8.171298 H        1 UNL1     0.2921
     46 H         -0.407974   4.181988   7.264485 H        1 UNL1     0.2922
     47 H         -0.239805   -1.338615   1.868192 H        1 UNL1     0.2126
     48 H         -2.07452   0.532309   -0.45267 H        1 UNL1     0.2101
     49 H         2.334733   1.507807   1.342719 H        1 UNL1     0.2100
     50 H         -0.448667   4.415034   0.345861 H        1 UNL1     0.2102
@<TRIPOS>BOND
     1     1     2    1
     2     1     6    1
     3     2     3    1
     4     3     4    1
     5     3    29    1
     6     3    33    1
     7     4     5    1
     8     5     6    1
     9     5     7    1
    10     5    35    1
    11     7     8    1
    12     8     9   ar
    13     8    13   ar
    14     9    10   ar
    15     9    36    1
    16    10    11   ar
    17    10    26    1
    18    11    12   ar
    19    11    14    1
    20    12    13   ar
    21    12    17    1
    22    13    37    1
    23    14    15    1
    24    14    25    2
    25    15    16    1
    26    15    38    1
    27    15    39    1
    28    16    17    1
    29    16    18    1
    30    16    40    1
    31    18    19   ar
    32    18    23   ar
    33    19    20   ar
    34    19    41    1
    35    20    21   ar
    36    20    42    1
    37    21    22   ar
    38    21    24    1
    39    22    23   ar
    40    22    43    1
    41    23    44    1
    42    24    45    1
    43    26    46    1
    44    27    47    1
    45    28    48    1
    46    29    49    1
    47    30    50    1
    48     1    31    1
    49     1    27    1
    50     2    32    1
    51     2    28    1
    52     4    34    1
    53     4    30    1
