@<TRIPOS>MOLECULE
*****
 50 53 0 0 0
SMALL
GASTEIGER

@<TRIPOS>ATOM
     1 C         -0.489169   -2.128485   0.032727 C.3        1 UNL1     0.1889
     2 C         -0.666036   -0.692391   -0.529672 C.3        1 UNL1     0.1342
     3 C         -2.102832   -0.151819   -0.467503 C.3        1 UNL1     0.1174
     4 C         -3.156447   -1.240033   -0.688422 C.3        1 UNL1     0.1456
     5 C         -2.877156   -2.50849   0.138243 C.3        1 UNL1     0.2326
     6 O         -1.580321   -3.014177   -0.170576 O.3        1 UNL1     -0.3076
     7 O         -3.094271   -2.331991   1.54999 O.3        1 UNL1     -0.4605
     8 C         -3.77781   -1.187639   1.919803 C.ar        1 UNL1     0.1310
     9 C         -4.350035   -0.955584   3.175195 C.ar        1 UNL1     0.0226
     10 C         -5.009196   0.246416   3.459101 C.ar        1 UNL1     0.1343
     11 C         -5.091492   1.256088   2.50117 C.ar        1 UNL1     0.1007
     12 C         -4.559722   1.019856   1.230659 C.ar        1 UNL1     0.1389
     13 C         -3.899301   -0.189873   0.9446 C.ar        1 UNL1     0.0229
     14 C         -5.702592   2.57748   2.77436 C.2        1 UNL1     0.1740
     15 C         -5.506323   3.616239   1.709462 C.3        1 UNL1     0.0520
     16 C         -5.659451   2.947684   0.350218 C.3        1 UNL1     0.1322
     17 O         -4.678953   1.900354   0.180528 O.3        1 UNL1     -0.4828
     18 C         -7.096124   2.530027   0.027328 C.ar        1 UNL1     -0.0067
     19 C         -7.943243   3.430361   -0.650906 C.ar        1 UNL1     -0.0516
     20 C         -9.276473   3.098403   -0.919726 C.ar        1 UNL1     -0.0198
     21 C         -9.775498   1.87494   -0.509923 C.ar        1 UNL1     0.1169
     22 C         -8.956691   0.953819   0.130336 C.ar        1 UNL1     -0.0198
     23 C         -7.618381   1.278148   0.382912 C.ar        1 UNL1     -0.0516
     24 O         -11.089044   1.601838   -0.755711 O.3        1 UNL1     -0.5068
     25 O         -6.267943   2.855992   3.828539 O.2        1 UNL1     -0.2917
     26 O         -5.546643   0.409685   4.702515 O.3        1 UNL1     -0.5058
     27 O         -0.034403   -2.157453   1.37628 O.3        1 UNL1     -0.3648
     28 O         -0.267711   -0.692077   -1.913161 O.3        1 UNL1     -0.3841
     29 O         -2.314798   0.587372   0.736988 O.3        1 UNL1     -0.3863
     30 O         -3.184557   -1.595057   -2.088014 O.3        1 UNL1     -0.3829
     31 H         0.32465   -2.589693   -0.537417 H        1 UNL1     0.0937
     32 H         0.0   0.0   0.0 H        1 UNL1     0.0671
     33 H         -2.222631   0.576495   -1.281706 H        1 UNL1     0.0649
     34 H         -4.150495   -0.855023   -0.435365 H        1 UNL1     0.0683
     35 H         -3.602955   -3.237754   -0.242898 H        1 UNL1     0.1085
     36 H         -4.271413   -1.678174   3.980058 H        1 UNL1     0.0691
     37 H         -3.494886   -0.349682   -0.052598 H        1 UNL1     0.0691
     38 H         -4.500867   4.032278   1.833945 H        1 UNL1     0.0385
     39 H         -6.231397   4.423741   1.857744 H        1 UNL1     0.0385
     40 H         -5.39649   3.695728   -0.409915 H        1 UNL1     0.0789
     41 H         -7.57803   4.400579   -0.974861 H        1 UNL1     0.0623
     42 H         -9.922984   3.80598   -1.432921 H        1 UNL1     0.0654
     43 H         -9.333136   -0.013108   0.442188 H        1 UNL1     0.0654
     44 H         -7.004492   0.53041   0.875734 H        1 UNL1     0.0623
     45 H         -11.620226   2.358931   -0.460123 H        1 UNL1     0.2921
     46 H         -6.16899   -0.312399   4.883325 H        1 UNL1     0.2922
     47 H         0.757696   -1.610656   1.473507 H        1 UNL1     0.2126
     48 H         0.705744   -0.769547   -1.923959 H        1 UNL1     0.2101
     49 H         -3.060489   0.208997   1.229502 H        1 UNL1     0.2100
     50 H         -3.526643   -0.824931   -2.58761 H        1 UNL1     0.2102
@<TRIPOS>BOND
     1     1     2    1
     2     1     6    1
     3     2     3    1
     4     3     4    1
     5     3    29    1
     6     3    33    1
     7     4     5    1
     8     5     6    1
     9     5     7    1
    10     5    35    1
    11     7     8    1
    12     8     9   ar
    13     8    13   ar
    14     9    10   ar
    15     9    36    1
    16    10    11   ar
    17    10    26    1
    18    11    12   ar
    19    11    14    1
    20    12    13   ar
    21    12    17    1
    22    13    37    1
    23    14    15    1
    24    14    25    2
    25    15    16    1
    26    15    38    1
    27    15    39    1
    28    16    17    1
    29    16    18    1
    30    16    40    1
    31    18    19   ar
    32    18    23   ar
    33    19    20   ar
    34    19    41    1
    35    20    21   ar
    36    20    42    1
    37    21    22   ar
    38    21    24    1
    39    22    23   ar
    40    22    43    1
    41    23    44    1
    42    24    45    1
    43    26    46    1
    44    27    47    1
    45    28    48    1
    46    29    49    1
    47    30    50    1
    48     1    31    1
    49     1    27    1
    50     2    32    1
    51     2    28    1
    52     4    34    1
    53     4    30    1
