@<TRIPOS>MOLECULE
*****
 50 53 0 0 0
SMALL
GASTEIGER

@<TRIPOS>ATOM
     1 C         0.462996   -1.551981   -1.465535 C.3        1 UNL1     0.1889
     2 C         -0.352523   -1.005003   -0.263169 C.3        1 UNL1     0.1342
     3 C         -0.319281   -1.892042   0.990833 C.3        1 UNL1     0.1174
     4 C         -0.273465   -3.385898   0.660058 C.3        1 UNL1     0.1456
     5 C         0.763832   -3.71792   -0.428124 C.3        1 UNL1     0.2326
     6 O         0.489482   -2.964649   -1.607184 O.3        1 UNL1     -0.3076
     7 O         2.125535   -3.591219   0.020241 O.3        1 UNL1     -0.4605
     8 C         3.101403   -3.817125   -0.933792 C.ar        1 UNL1     0.1310
     9 C         4.333595   -3.158321   -1.004358 C.ar        1 UNL1     0.0226
     10 C         5.265268   -3.470753   -2.00149 C.ar        1 UNL1     0.1343
     11 C         4.996791   -4.467285   -2.938872 C.ar        1 UNL1     0.1007
     12 C         3.753103   -5.103505   -2.903527 C.ar        1 UNL1     0.1389
     13 C         2.815419   -4.787325   -1.902423 C.ar        1 UNL1     0.0229
     14 C         5.978364   -4.89595   -3.96206 C.2        1 UNL1     0.1740
     15 C         5.610936   -6.125794   -4.739253 C.3        1 UNL1     0.0520
     16 C         4.122806   -6.068989   -5.055795 C.3        1 UNL1     0.1322
     17 O         3.341675   -6.021835   -3.841431 O.3        1 UNL1     -0.4828
     18 C         3.753041   -5.002682   -6.089714 C.ar        1 UNL1     -0.0067
     19 C         2.840523   -5.320684   -7.116553 C.ar        1 UNL1     -0.0516
     20 C         2.516948   -4.384026   -8.105458 C.ar        1 UNL1     -0.0198
     21 C         3.103395   -3.13127   -8.082852 C.ar        1 UNL1     0.1169
     22 C         3.980111   -2.77718   -7.065587 C.ar        1 UNL1     -0.0198
     23 C         4.28973   -3.707382   -6.066129 C.ar        1 UNL1     -0.0516
     24 O         2.792987   -2.258343   -9.083874 O.3        1 UNL1     -0.5068
     25 O         7.064566   -4.347409   -4.128652 O.2        1 UNL1     -0.2917
     26 O         6.448003   -2.790662   -2.015617 O.3        1 UNL1     -0.5058
     27 O         1.761794   -0.99071   -1.569876 O.3        1 UNL1     -0.3648
     28 O         -1.729682   -0.881833   -0.664378 O.3        1 UNL1     -0.3841
     29 O         0.731833   -1.48746   1.870382 O.3        1 UNL1     -0.3863
     30 O         -1.576419   -3.810333   0.204145 O.3        1 UNL1     -0.3829
     31 H         -0.050709   -1.213346   -2.371908 H        1 UNL1     0.0937
     32 H         0.0   0.0   0.0 H        1 UNL1     0.0671
     33 H         -1.24986   -1.718546   1.549083 H        1 UNL1     0.0649
     34 H         -0.046655   -3.962266   1.563805 H        1 UNL1     0.0683
     35 H         0.567064   -4.770153   -0.668887 H        1 UNL1     0.1085
     36 H         4.624802   -2.413605   -0.271748 H        1 UNL1     0.0691
     37 H         1.85392   -5.296234   -1.897436 H        1 UNL1     0.0691
     38 H         5.849382   -6.994632   -4.116524 H        1 UNL1     0.0385
     39 H         6.225274   -6.175034   -5.64476 H        1 UNL1     0.0385
     40 H         3.853429   -7.028111   -5.518441 H        1 UNL1     0.0789
     41 H         2.373631   -6.300291   -7.161637 H        1 UNL1     0.0623
     42 H         1.820968   -4.645281   -8.898785 H        1 UNL1     0.0654
     43 H         4.433507   -1.793786   -7.029828 H        1 UNL1     0.0654
     44 H         4.970392   -3.39326   -5.280717 H        1 UNL1     0.0623
     45 H         1.834262   -2.291838   -9.23368 H        1 UNL1     0.2921
     46 H         6.28316   -1.851248   -1.837462 H        1 UNL1     0.2922
     47 H         2.401103   -1.670957   -1.823661 H        1 UNL1     0.2126
     48 H         -2.042967   -1.78377   -0.869544 H        1 UNL1     0.2101
     49 H         0.676909   -1.985682   2.701377 H        1 UNL1     0.2100
     50 H         -2.194772   -3.751752   0.96172 H        1 UNL1     0.2102
@<TRIPOS>BOND
     1     1     2    1
     2     1     6    1
     3     2     3    1
     4     3     4    1
     5     3    29    1
     6     3    33    1
     7     4     5    1
     8     5     6    1
     9     5     7    1
    10     5    35    1
    11     7     8    1
    12     8     9   ar
    13     8    13   ar
    14     9    10   ar
    15     9    36    1
    16    10    11   ar
    17    10    26    1
    18    11    12   ar
    19    11    14    1
    20    12    13   ar
    21    12    17    1
    22    13    37    1
    23    14    15    1
    24    14    25    2
    25    15    16    1
    26    15    38    1
    27    15    39    1
    28    16    17    1
    29    16    18    1
    30    16    40    1
    31    18    19   ar
    32    18    23   ar
    33    19    20   ar
    34    19    41    1
    35    20    21   ar
    36    20    42    1
    37    21    22   ar
    38    21    24    1
    39    22    23   ar
    40    22    43    1
    41    23    44    1
    42    24    45    1
    43    26    46    1
    44    27    47    1
    45    28    48    1
    46    29    49    1
    47    30    50    1
    48     1    31    1
    49     1    27    1
    50     2    32    1
    51     2    28    1
    52     4    34    1
    53     4    30    1
