@<TRIPOS>MOLECULE
*****
 50 53 0 0 0
SMALL
GASTEIGER

@<TRIPOS>ATOM
     1 C         1.56709   -0.441276   -1.456128 C.3        1 UNL1     0.1889
     2 C         0.672082   -0.830603   -0.24893 C.3        1 UNL1     0.1342
     3 C         1.443129   -1.2468   1.013105 C.3        1 UNL1     0.1174
     4 C         2.740378   -1.99506   0.696295 C.3        1 UNL1     0.1456
     5 C         3.568184   -1.302468   -0.40162 C.3        1 UNL1     0.2326
     6 O         2.784734   -1.160505   -1.58438 O.3        1 UNL1     -0.3076
     7 O         4.172482   -0.069041   0.028269 O.3        1 UNL1     -0.4605
     8 C         3.476275   0.645394   0.986605 C.ar        1 UNL1     0.1310
     9 C         4.040765   1.25348   2.113051 C.ar        1 UNL1     0.0226
     10 C         3.251906   1.971845   3.019448 C.ar        1 UNL1     0.1343
     11 C         1.88171   2.119776   2.808448 C.ar        1 UNL1     0.1007
     12 C         1.299971   1.482602   1.709188 C.ar        1 UNL1     0.1389
     13 C         2.09296   0.75813   0.799386 C.ar        1 UNL1     0.0229
     14 C         1.015123   2.937788   3.688242 C.2        1 UNL1     0.1740
     15 C         -0.381378   3.169366   3.19054 C.3        1 UNL1     0.0520
     16 C         -0.892179   1.876475   2.569677 C.3        1 UNL1     0.1322
     17 O         -0.053732   1.471865   1.464975 O.3        1 UNL1     -0.4828
     18 C         -1.172998   0.771452   3.590848 C.ar        1 UNL1     -0.0067
     19 C         -0.1028   -0.000478   4.087854 C.ar        1 UNL1     -0.0516
     20 C         -0.330421   -1.049551   4.986518 C.ar        1 UNL1     -0.0198
     21 C         -1.62148   -1.340767   5.389241 C.ar        1 UNL1     0.1169
     22 C         -2.69245   -0.57724   4.94327 C.ar        1 UNL1     -0.0198
     23 C         -2.463127   0.48363   4.05895 C.ar        1 UNL1     -0.0516
     24 O         -1.808389   -2.393722   6.235852 O.3        1 UNL1     -0.5068
     25 O         1.411297   3.470357   4.721635 O.2        1 UNL1     -0.2917
     26 O         3.863761   2.539893   4.098587 O.3        1 UNL1     -0.5058
     27 O         1.769129   0.957312   -1.582298 O.3        1 UNL1     -0.3648
     28 O         -0.153267   -1.945638   -0.6339 O.3        1 UNL1     -0.3841
     29 O         1.647341   -0.125654   1.875346 O.3        1 UNL1     -0.3863
     30 O         2.420514   -3.334426   0.261006 O.3        1 UNL1     -0.3829
     31 H         1.011115   -0.715962   -2.359189 H        1 UNL1     0.0937
     32 H         0.0   0.0   0.0 H        1 UNL1     0.0671
     33 H         0.80714   -1.939866   1.581345 H        1 UNL1     0.0649
     34 H         3.348678   -2.08927   1.602659 H        1 UNL1     0.0683
     35 H         4.362021   -2.024757   -0.629655 H        1 UNL1     0.1085
     36 H         5.107992   1.222327   2.303255 H        1 UNL1     0.0691
     37 H         1.615672   0.270455   -0.047881 H        1 UNL1     0.0691
     38 H         -0.339427   3.974082   2.448787 H        1 UNL1     0.0385
     39 H         -1.008415   3.504551   4.023759 H        1 UNL1     0.0385
     40 H         -1.863942   2.100362   2.109164 H        1 UNL1     0.0789
     41 H         0.918848   0.202252   3.779982 H        1 UNL1     0.0623
     42 H         0.501886   -1.645109   5.35338 H        1 UNL1     0.0654
     43 H         -3.705867   -0.787083   5.263991 H        1 UNL1     0.0654
     44 H         -3.321956   1.065828   3.739102 H        1 UNL1     0.0623
     45 H         -2.347083   -3.061196   5.780874 H        1 UNL1     0.2921
     46 H         4.58743   3.11128   3.79654 H        1 UNL1     0.2922
     47 H         0.920644   1.421486   -1.560489 H        1 UNL1     0.2126
     48 H         -0.895337   -1.976415   0.000226 H        1 UNL1     0.2101
     49 H         1.940362   0.640476   1.356716 H        1 UNL1     0.2100
     50 H         2.859144   -3.96267   0.871436 H        1 UNL1     0.2102
@<TRIPOS>BOND
     1     1     2    1
     2     1     6    1
     3     2     3    1
     4     3     4    1
     5     3    29    1
     6     3    33    1
     7     4     5    1
     8     5     6    1
     9     5     7    1
    10     5    35    1
    11     7     8    1
    12     8     9   ar
    13     8    13   ar
    14     9    10   ar
    15     9    36    1
    16    10    11   ar
    17    10    26    1
    18    11    12   ar
    19    11    14    1
    20    12    13   ar
    21    12    17    1
    22    13    37    1
    23    14    15    1
    24    14    25    2
    25    15    16    1
    26    15    38    1
    27    15    39    1
    28    16    17    1
    29    16    18    1
    30    16    40    1
    31    18    19   ar
    32    18    23   ar
    33    19    20   ar
    34    19    41    1
    35    20    21   ar
    36    20    42    1
    37    21    22   ar
    38    21    24    1
    39    22    23   ar
    40    22    43    1
    41    23    44    1
    42    24    45    1
    43    26    46    1
    44    27    47    1
    45    28    48    1
    46    29    49    1
    47    30    50    1
    48     1    31    1
    49     1    27    1
    50     2    32    1
    51     2    28    1
    52     4    34    1
    53     4    30    1
