@<TRIPOS>MOLECULE
*****
 50 53 0 0 0
SMALL
GASTEIGER

@<TRIPOS>ATOM
     1 C         0.246995   -1.786124   1.232704 C.3        1 UNL1     0.1889
     2 C         -0.333231   -1.045235   -0.001946 C.3        1 UNL1     0.1342
     3 C         -1.86531   -1.082543   -0.110608 C.3        1 UNL1     0.1174
     4 C         -2.464445   -2.396665   0.396578 C.3        1 UNL1     0.1456
     5 C         -1.873967   -2.830816   1.75054 C.3        1 UNL1     0.2326
     6 O         -0.456694   -2.947579   1.64772 O.3        1 UNL1     -0.3076
     7 O         -2.295313   -2.004565   2.851039 O.3        1 UNL1     -0.4605
     8 C         -2.41442   -2.638946   4.074519 C.ar        1 UNL1     0.1310
     9 C         -3.039061   -3.872013   4.290556 C.ar        1 UNL1     0.0226
     10 C         -3.09343   -4.441777   5.568176 C.ar        1 UNL1     0.1343
     11 C         -2.503025   -3.802899   6.657717 C.ar        1 UNL1     0.1007
     12 C         -1.912244   -2.551734   6.461893 C.ar        1 UNL1     0.1389
     13 C         -1.860025   -1.977812   5.177636 C.ar        1 UNL1     0.0229
     14 C         -2.457627   -4.398842   8.013057 C.2        1 UNL1     0.1740
     15 C         -1.593242   -3.682509   9.008674 C.3        1 UNL1     0.0520
     16 C         -1.778624   -2.183528   8.817242 C.3        1 UNL1     0.1322
     17 O         -1.396822   -1.786027   7.481844 O.3        1 UNL1     -0.4828
     18 C         -3.149463   -1.670127   9.264395 C.ar        1 UNL1     -0.0067
     19 C         -3.881701   -0.8183   8.412085 C.ar        1 UNL1     -0.0516
     20 C         -5.116912   -0.292999   8.809922 C.ar        1 UNL1     -0.0198
     21 C         -5.6261   -0.605359   10.057715 C.ar        1 UNL1     0.1169
     22 C         -4.944249   -1.468155   10.905949 C.ar        1 UNL1     -0.0198
     23 C         -3.717762   -2.008304   10.500949 C.ar        1 UNL1     -0.0516
     24 O         -6.813868   -0.044835   10.425714 O.3        1 UNL1     -0.5068
     25 O         -3.015651   -5.452646   8.307321 O.2        1 UNL1     -0.2917
     26 O         -3.718314   -5.646149   5.71168 O.3        1 UNL1     -0.5058
     27 O         0.53075   -0.927185   2.325632 O.3        1 UNL1     -0.3648
     28 O         0.195704   -1.658704   -1.192152 O.3        1 UNL1     -0.3841
     29 O         -2.445781   0.066329   0.510101 O.3        1 UNL1     -0.3863
     30 O         -2.214607   -3.43684   -0.573632 O.3        1 UNL1     -0.3829
     31 H         1.226766   -2.173787   0.932962 H        1 UNL1     0.0937
     32 H         0.0   0.0   0.0 H        1 UNL1     0.0671
     33 H         -2.128051   -1.003276   -1.174753 H        1 UNL1     0.0649
     34 H         -3.551786   -2.300327   0.490429 H        1 UNL1     0.0683
     35 H         -2.267633   -3.844301   1.898033 H        1 UNL1     0.1085
     36 H         -3.467615   -4.4447   3.475393 H        1 UNL1     0.0691
     37 H         -1.395396   -1.002209   5.051894 H        1 UNL1     0.0691
     38 H         -0.555891   -3.979362   8.820768 H        1 UNL1     0.0385
     39 H         -1.864395   -4.007567   10.018918 H        1 UNL1     0.0385
     40 H         -1.052825   -1.681472   9.471211 H        1 UNL1     0.0789
     41 H         -3.499331   -0.550686   7.431357 H        1 UNL1     0.0623
     42 H         -5.666385   0.372255   8.148463 H        1 UNL1     0.0654
     43 H         -5.341042   -1.731384   11.879179 H        1 UNL1     0.0654
     44 H         -3.217367   -2.687234   11.184692 H        1 UNL1     0.0623
     45 H         -6.702074   0.919202   10.454885 H        1 UNL1     0.2921
     46 H         -3.103996   -6.284187   6.107827 H        1 UNL1     0.2922
     47 H         1.114127   -0.208664   2.044102 H        1 UNL1     0.2126
     48 H         1.160677   -1.509102   -1.178738 H        1 UNL1     0.2101
     49 H         -2.250301   0.859021   -0.014514 H        1 UNL1     0.2100
     50 H         -2.717089   -3.218614   -1.385791 H        1 UNL1     0.2102
@<TRIPOS>BOND
     1     1     2    1
     2     1     6    1
     3     2     3    1
     4     3     4    1
     5     3    29    1
     6     3    33    1
     7     4     5    1
     8     5     6    1
     9     5     7    1
    10     5    35    1
    11     7     8    1
    12     8     9   ar
    13     8    13   ar
    14     9    10   ar
    15     9    36    1
    16    10    11   ar
    17    10    26    1
    18    11    12   ar
    19    11    14    1
    20    12    13   ar
    21    12    17    1
    22    13    37    1
    23    14    15    1
    24    14    25    2
    25    15    16    1
    26    15    38    1
    27    15    39    1
    28    16    17    1
    29    16    18    1
    30    16    40    1
    31    18    19   ar
    32    18    23   ar
    33    19    20   ar
    34    19    41    1
    35    20    21   ar
    36    20    42    1
    37    21    22   ar
    38    21    24    1
    39    22    23   ar
    40    22    43    1
    41    23    44    1
    42    24    45    1
    43    26    46    1
    44    27    47    1
    45    28    48    1
    46    29    49    1
    47    30    50    1
    48     1    31    1
    49     1    27    1
    50     2    32    1
    51     2    28    1
    52     4    34    1
    53     4    30    1
