@<TRIPOS>MOLECULE
*****
 50 53 0 0 0
SMALL
GASTEIGER

@<TRIPOS>ATOM
     1 C         -0.603041   1.956056   0.762227 C.3        1 UNL1     0.1889
     2 C         -0.177337   1.009195   -0.391969 C.3        1 UNL1     0.1342
     3 C         1.063124   1.468327   -1.173583 C.3        1 UNL1     0.1174
     4 C         1.151919   2.990818   -1.304935 C.3        1 UNL1     0.1456
     5 C         0.88928   3.714571   0.02832 C.3        1 UNL1     0.2326
     6 O         -0.388253   3.342041   0.540177 O.3        1 UNL1     -0.3076
     7 O         1.951311   3.554531   0.986338 O.3        1 UNL1     -0.4605
     8 C         1.638278   2.83136   2.123247 C.ar        1 UNL1     0.1310
     9 C         2.510284   1.975794   2.805092 C.ar        1 UNL1     0.0226
     10 C         2.103385   1.298758   3.960928 C.ar        1 UNL1     0.1343
     11 C         0.820845   1.479506   4.476935 C.ar        1 UNL1     0.1007
     12 C         -0.072103   2.299447   3.781863 C.ar        1 UNL1     0.1389
     13 C         0.336431   2.97803   2.618224 C.ar        1 UNL1     0.0229
     14 C         0.365783   0.854785   5.740578 C.2        1 UNL1     0.1740
     15 C         -0.958014   1.332457   6.261098 C.3        1 UNL1     0.0520
     16 C         -1.907425   1.498965   5.082602 C.3        1 UNL1     0.1322
     17 O         -1.390159   2.463573   4.139715 O.3        1 UNL1     -0.4828
     18 C         -2.350564   0.174474   4.456444 C.ar        1 UNL1     -0.0067
     19 C         -2.84112   -0.85422   5.286719 C.ar        1 UNL1     -0.0516
     20 C         -3.210283   -2.09431   4.752061 C.ar        1 UNL1     -0.0198
     21 C         -3.086951   -2.320161   3.392793 C.ar        1 UNL1     0.1169
     22 C         -2.638692   -1.315571   2.545031 C.ar        1 UNL1     -0.0198
     23 C         -2.286893   -0.069244   3.076972 C.ar        1 UNL1     -0.0516
     24 O         -3.420435   -3.552785   2.91339 O.3        1 UNL1     -0.5068
     25 O         1.043292   0.05629   6.382352 O.2        1 UNL1     -0.2917
     26 O         3.00174   0.47804   4.578152 O.3        1 UNL1     -0.5058
     27 O         -0.123177   1.548803   2.033708 O.3        1 UNL1     -0.3648
     28 O         -1.265038   0.916523   -1.330598 O.3        1 UNL1     -0.3841
     29 O         2.249869   0.889869   -0.626633 O.3        1 UNL1     -0.3863
     30 O         0.181651   3.439941   -2.275789 O.3        1 UNL1     -0.3829
     31 H         -1.692318   1.876077   0.846831 H        1 UNL1     0.0937
     32 H         0.0   0.0   0.0 H        1 UNL1     0.0671
     33 H         0.98524   1.065396   -2.193044 H        1 UNL1     0.0649
     34 H         2.139706   3.276587   -1.683107 H        1 UNL1     0.0683
     35 H         0.823659   4.7729   -0.253659 H        1 UNL1     0.1085
     36 H         3.537495   1.836387   2.486462 H        1 UNL1     0.0691
     37 H         -0.37815   3.609689   2.094895 H        1 UNL1     0.0691
     38 H         -0.788751   2.287442   6.769902 H        1 UNL1     0.0385
     39 H         -1.334319   0.61442   6.997708 H        1 UNL1     0.0385
     40 H         -2.826518   1.959193   5.469873 H        1 UNL1     0.0789
     41 H         -2.938731   -0.704945   6.358092 H        1 UNL1     0.0623
     42 H         -3.575945   -2.883562   5.404275 H        1 UNL1     0.0654
     43 H         -2.552482   -1.476751   1.477089 H        1 UNL1     0.0654
     44 H         -1.950631   0.696055   2.384087 H        1 UNL1     0.0623
     45 H         -3.486776   -3.498067   1.94627 H        1 UNL1     0.2921
     46 H         3.792156   0.98658   4.819069 H        1 UNL1     0.2922
     47 H         0.765876   1.176198   1.952417 H        1 UNL1     0.2126
     48 H         -1.108313   1.60148   -2.008834 H        1 UNL1     0.2101
     49 H         3.014501   1.123021   -1.176879 H        1 UNL1     0.2100
     50 H         -0.137413   2.655507   -2.768307 H        1 UNL1     0.2102
@<TRIPOS>BOND
     1     1     2    1
     2     1     6    1
     3     2     3    1
     4     3     4    1
     5     3    29    1
     6     3    33    1
     7     4     5    1
     8     5     6    1
     9     5     7    1
    10     5    35    1
    11     7     8    1
    12     8     9   ar
    13     8    13   ar
    14     9    10   ar
    15     9    36    1
    16    10    11   ar
    17    10    26    1
    18    11    12   ar
    19    11    14    1
    20    12    13   ar
    21    12    17    1
    22    13    37    1
    23    14    15    1
    24    14    25    2
    25    15    16    1
    26    15    38    1
    27    15    39    1
    28    16    17    1
    29    16    18    1
    30    16    40    1
    31    18    19   ar
    32    18    23   ar
    33    19    20   ar
    34    19    41    1
    35    20    21   ar
    36    20    42    1
    37    21    22   ar
    38    21    24    1
    39    22    23   ar
    40    22    43    1
    41    23    44    1
    42    24    45    1
    43    26    46    1
    44    27    47    1
    45    28    48    1
    46    29    49    1
    47    30    50    1
    48     1    31    1
    49     1    27    1
    50     2    32    1
    51     2    28    1
    52     4    34    1
    53     4    30    1
