@<TRIPOS>MOLECULE
*****
 50 53 0 0 0
SMALL
GASTEIGER

@<TRIPOS>ATOM
     1 C         -0.192417   1.956075   -0.952655 C.3        1 UNL1     0.1889
     2 C         0.04671   1.056991   0.290087 C.3        1 UNL1     0.1342
     3 C         -0.92567   1.300521   1.454404 C.3        1 UNL1     0.1174
     4 C         -1.335263   2.769341   1.588265 C.3        1 UNL1     0.1456
     5 C         -1.728601   3.397724   0.238901 C.3        1 UNL1     0.2326
     6 O         -0.651964   3.273233   -0.687503 O.3        1 UNL1     -0.3076
     7 O         -2.979489   2.908676   -0.278238 O.3        1 UNL1     -0.4605
     8 C         -3.341469   1.633232   0.116402 C.ar        1 UNL1     0.1310
     9 C         -4.620753   1.245013   0.528736 C.ar        1 UNL1     0.0226
     10 C         -4.892787   -0.078816   0.893943 C.ar        1 UNL1     0.1343
     11 C         -3.896889   -1.05262   0.832824 C.ar        1 UNL1     0.1007
     12 C         -2.605482   -0.668565   0.461944 C.ar        1 UNL1     0.1389
     13 C         -2.331574   0.663145   0.097315 C.ar        1 UNL1     0.0229
     14 C         -4.14944   -2.482314   1.126673 C.2        1 UNL1     0.1740
     15 C         -3.026648   -3.421277   0.796166 C.3        1 UNL1     0.0520
     16 C         -1.713425   -2.759895   1.191102 C.3        1 UNL1     0.1322
     17 O         -1.526198   -1.521399   0.47128 O.3        1 UNL1     -0.4828
     18 C         -1.508683   -2.651465   2.704062 C.ar        1 UNL1     -0.0067
     19 C         -0.254708   -2.246679   3.205968 C.ar        1 UNL1     -0.0516
     20 C         -0.019416   -2.182746   4.584559 C.ar        1 UNL1     -0.0198
     21 C         -1.025358   -2.527327   5.469529 C.ar        1 UNL1     0.1169
     22 C         -2.281137   -2.897611   5.006121 C.ar        1 UNL1     -0.0198
     23 C         -2.522374   -2.943869   3.627817 C.ar        1 UNL1     -0.0516
     24 O         -0.747683   -2.489343   6.80439 O.3        1 UNL1     -0.5068
     25 O         -5.225572   -2.908217   1.537806 O.2        1 UNL1     -0.2917
     26 O         -6.160958   -0.392042   1.287919 O.3        1 UNL1     -0.5058
     27 O         -0.960989   1.327266   -1.965909 O.3        1 UNL1     -0.3648
     28 O         1.376328   1.304933   0.783388 O.3        1 UNL1     -0.3841
     29 O         -2.047048   0.418615   1.371423 O.3        1 UNL1     -0.3863
     30 O         -0.234251   3.519232   2.146053 O.3        1 UNL1     -0.3829
     31 H         0.787047   2.115186   -1.416782 H        1 UNL1     0.0937
     32 H         0.0   -0.0   0.0 H        1 UNL1     0.0671
     33 H         -0.408888   1.02859   2.385376 H        1 UNL1     0.0649
     34 H         -2.173151   2.861652   2.288139 H        1 UNL1     0.0683
     35 H         -1.832805   4.466302   0.465088 H        1 UNL1     0.1085
     36 H         -5.451041   1.942511   0.544152 H        1 UNL1     0.0691
     37 H         -1.31767   0.936801   -0.186594 H        1 UNL1     0.0691
     38 H         -3.063053   -3.614826   -0.281211 H        1 UNL1     0.0385
     39 H         -3.186291   -4.370057   1.31972 H        1 UNL1     0.0385
     40 H         -0.903307   -3.410107   0.834095 H        1 UNL1     0.0789
     41 H         0.554059   -1.979869   2.531907 H        1 UNL1     0.0623
     42 H         0.955483   -1.88056   4.959082 H        1 UNL1     0.0654
     43 H         -3.080616   -3.154994   5.69059 H        1 UNL1     0.0654
     44 H         -3.518305   -3.227223   3.301203 H        1 UNL1     0.0623
     45 H         -1.544504   -2.755626   7.291099 H        1 UNL1     0.2921
     46 H         -6.435897   0.207228   1.999745 H        1 UNL1     0.2922
     47 H         -0.991482   0.371646   -1.818533 H        1 UNL1     0.2126
     48 H         1.914994   1.571671   0.013698 H        1 UNL1     0.2101
     49 H         -1.76337   -0.493143   1.544683 H        1 UNL1     0.2100
     50 H         -0.158614   4.359376   1.647907 H        1 UNL1     0.2102
@<TRIPOS>BOND
     1     1     2    1
     2     1     6    1
     3     2     3    1
     4     3     4    1
     5     3    29    1
     6     3    33    1
     7     4     5    1
     8     5     6    1
     9     5     7    1
    10     5    35    1
    11     7     8    1
    12     8     9   ar
    13     8    13   ar
    14     9    10   ar
    15     9    36    1
    16    10    11   ar
    17    10    26    1
    18    11    12   ar
    19    11    14    1
    20    12    13   ar
    21    12    17    1
    22    13    37    1
    23    14    15    1
    24    14    25    2
    25    15    16    1
    26    15    38    1
    27    15    39    1
    28    16    17    1
    29    16    18    1
    30    16    40    1
    31    18    19   ar
    32    18    23   ar
    33    19    20   ar
    34    19    41    1
    35    20    21   ar
    36    20    42    1
    37    21    22   ar
    38    21    24    1
    39    22    23   ar
    40    22    43    1
    41    23    44    1
    42    24    45    1
    43    26    46    1
    44    27    47    1
    45    28    48    1
    46    29    49    1
    47    30    50    1
    48     1    31    1
    49     1    27    1
    50     2    32    1
    51     2    28    1
    52     4    34    1
    53     4    30    1
