@<TRIPOS>MOLECULE
*****
 50 53 0 0 0
SMALL
GASTEIGER

@<TRIPOS>ATOM
     1 C         0.185293   -1.820204   1.193033 C.3        1 UNL1     0.1889
     2 C         -0.367584   -1.033338   -0.025617 C.3        1 UNL1     0.1342
     3 C         -1.899831   -1.017522   -0.137118 C.3        1 UNL1     0.1174
     4 C         -2.54311   -2.322024   0.339941 C.3        1 UNL1     0.1456
     5 C         -1.970097   -2.805378   1.684705 C.3        1 UNL1     0.2326
     6 O         -0.557248   -2.966657   1.5812 O.3        1 UNL1     -0.3076
     7 O         -2.36618   -1.990239   2.802733 O.3        1 UNL1     -0.4605
     8 C         -2.508709   -2.647297   4.011653 C.ar        1 UNL1     0.1310
     9 C         -3.165214   -3.868649   4.197669 C.ar        1 UNL1     0.0226
     10 C         -3.241757   -4.463897   5.462471 C.ar        1 UNL1     0.1343
     11 C         -2.642452   -3.863303   6.568798 C.ar        1 UNL1     0.1007
     12 C         -2.019471   -2.623444   6.403184 C.ar        1 UNL1     0.1389
     13 C         -1.944932   -2.023846   5.131824 C.ar        1 UNL1     0.0229
     14 C         -2.620399   -4.488865   7.911311 C.2        1 UNL1     0.1740
     15 C         -1.744686   -3.815722   8.926966 C.3        1 UNL1     0.0520
     16 C         -1.891466   -2.308839   8.7666 C.3        1 UNL1     0.1322
     17 O         -1.491528   -1.892732   7.442223 O.3        1 UNL1     -0.4828
     18 C         -3.251862   -1.770893   9.21678 C.ar        1 UNL1     -0.0067
     19 C         -3.455336   -0.377619   9.291605 C.ar        1 UNL1     -0.0516
     20 C         -4.671532   0.1474   9.744578 C.ar        1 UNL1     -0.0198
     21 C         -5.687183   -0.708399   10.131733 C.ar        1 UNL1     0.1169
     22 C         -5.528741   -2.084951   10.037718 C.ar        1 UNL1     -0.0198
     23 C         -4.319202   -2.610118   9.567323 C.ar        1 UNL1     -0.0516
     24 O         -6.843985   -0.160853   10.603328 O.3        1 UNL1     -0.5068
     25 O         -3.206332   -5.534382   8.179753 O.2        1 UNL1     -0.2917
     26 O         -3.897336   -5.655022   5.576584 O.3        1 UNL1     -0.5058
     27 O         0.49502   -0.99556   2.305157 O.3        1 UNL1     -0.3648
     28 O         0.143245   -1.637437   -1.228458 O.3        1 UNL1     -0.3841
     29 O         -2.4433   0.135882   0.508197 O.3        1 UNL1     -0.3863
     30 O         -2.32578   -3.348132   -0.652812 O.3        1 UNL1     -0.3829
     31 H         1.152335   -2.233329   0.886054 H        1 UNL1     0.0937
     32 H         0.0   0.0   0.0 H        1 UNL1     0.0671
     33 H         -2.157613   -0.906038   -1.199587 H        1 UNL1     0.0649
     34 H         -3.626866   -2.191871   0.434465 H        1 UNL1     0.0683
     35 H         -2.397343   -3.808305   1.809114 H        1 UNL1     0.1085
     36 H         -3.602792   -4.412972   3.367996 H        1 UNL1     0.0691
     37 H         -1.455365   -1.05773   5.029654 H        1 UNL1     0.0691
     38 H         -0.713896   -4.134396   8.738693 H        1 UNL1     0.0385
     39 H         -2.030171   -4.155285   9.928451 H        1 UNL1     0.0385
     40 H         -1.157492   -1.839127   9.43531 H        1 UNL1     0.0789
     41 H         -2.6705   0.315144   9.002187 H        1 UNL1     0.0623
     42 H         -4.811998   1.223565   9.808993 H        1 UNL1     0.0654
     43 H         -6.322932   -2.764066   10.324028 H        1 UNL1     0.0654
     44 H         -4.233882   -3.690217   9.496943 H        1 UNL1     0.0623
     45 H         -6.648136   0.300842   11.434711 H        1 UNL1     0.2921
     46 H         -3.308732   -6.31063   5.982952 H        1 UNL1     0.2922
     47 H         1.102402   -0.290669   2.04044 H        1 UNL1     0.2126
     48 H         1.089922   -1.402946   -1.278948 H        1 UNL1     0.2101
     49 H         -2.377654   0.904862   -0.080152 H        1 UNL1     0.2100
     50 H         -2.837283   -3.106898   -1.452739 H        1 UNL1     0.2102
@<TRIPOS>BOND
     1     1     2    1
     2     1     6    1
     3     2     3    1
     4     3     4    1
     5     3    29    1
     6     3    33    1
     7     4     5    1
     8     5     6    1
     9     5     7    1
    10     5    35    1
    11     7     8    1
    12     8     9   ar
    13     8    13   ar
    14     9    10   ar
    15     9    36    1
    16    10    11   ar
    17    10    26    1
    18    11    12   ar
    19    11    14    1
    20    12    13   ar
    21    12    17    1
    22    13    37    1
    23    14    15    1
    24    14    25    2
    25    15    16    1
    26    15    38    1
    27    15    39    1
    28    16    17    1
    29    16    18    1
    30    16    40    1
    31    18    19   ar
    32    18    23   ar
    33    19    20   ar
    34    19    41    1
    35    20    21   ar
    36    20    42    1
    37    21    22   ar
    38    21    24    1
    39    22    23   ar
    40    22    43    1
    41    23    44    1
    42    24    45    1
    43    26    46    1
    44    27    47    1
    45    28    48    1
    46    29    49    1
    47    30    50    1
    48     1    31    1
    49     1    27    1
    50     2    32    1
    51     2    28    1
    52     4    34    1
    53     4    30    1
