@<TRIPOS>MOLECULE
*****
 50 53 0 0 0
SMALL
GASTEIGER

@<TRIPOS>ATOM
     1 C         -0.330299   -1.327354   1.702891 C.3        1 UNL1     0.1889
     2 C         -0.461382   -0.975738   0.19653 C.3        1 UNL1     0.1342
     3 C         -1.902312   -0.965152   -0.336454 C.3        1 UNL1     0.1174
     4 C         -2.787379   -2.024846   0.324473 C.3        1 UNL1     0.1456
     5 C         -2.635496   -2.048828   1.856374 C.3        1 UNL1     0.2326
     6 O         -1.270313   -2.265174   2.206143 O.3        1 UNL1     -0.3076
     7 O         -3.211545   -0.901887   2.507538 O.3        1 UNL1     -0.4605
     8 C         -3.720641   -1.116855   3.775662 C.ar        1 UNL1     0.1310
     9 C         -4.535613   -2.190479   4.150433 C.ar        1 UNL1     0.0226
     10 C         -4.98803   -2.330269   5.467885 C.ar        1 UNL1     0.1343
     11 C         -4.616513   -1.411837   6.448853 C.ar        1 UNL1     0.1007
     12 C         -3.836765   -0.313152   6.077817 C.ar        1 UNL1     0.1389
     13 C         -3.38417   -0.171385   4.75249 C.ar        1 UNL1     0.0229
     14 C         -4.99659   -1.556898   7.873161 C.2        1 UNL1     0.1740
     15 C         -4.328499   -0.60705   8.823419 C.3        1 UNL1     0.0520
     16 C         -4.261024   0.764448   8.16585 C.3        1 UNL1     0.1322
     17 O         -3.502735   0.707446   6.93751 O.3        1 UNL1     -0.4828
     18 C         -5.621129   1.455144   8.040246 C.ar        1 UNL1     -0.0067
     19 C         -6.001252   2.016453   6.803859 C.ar        1 UNL1     -0.0516
     20 C         -7.217371   2.696419   6.667245 C.ar        1 UNL1     -0.0198
     21 C         -8.056904   2.827975   7.758898 C.ar        1 UNL1     0.1169
     22 C         -7.725559   2.257208   8.980894 C.ar        1 UNL1     -0.0198
     23 C         -6.517965   1.561278   9.113007 C.ar        1 UNL1     -0.0516
     24 O         -9.215485   3.529462   7.597626 O.3        1 UNL1     -0.5068
     25 O         -5.74421   -2.439125   8.286955 O.2        1 UNL1     -0.2917
     26 O         -5.780985   -3.399268   5.767967 O.3        1 UNL1     -0.5058
     27 O         -0.226062   -0.188365   2.542311 O.3        1 UNL1     -0.3648
     28 O         0.27006   -1.953991   -0.565519 O.3        1 UNL1     -0.3841
     29 O         -2.461127   0.347935   -0.261226 O.3        1 UNL1     -0.3863
     30 O         -2.43854   -3.325682   -0.196899 O.3        1 UNL1     -0.3829
     31 H         0.630927   -1.839112   1.822176 H        1 UNL1     0.0937
     32 H         0.0   0.0   0.0 H        1 UNL1     0.0671
     33 H         -1.865219   -1.205495   -1.408172 H        1 UNL1     0.0649
     34 H         -3.83773   -1.847818   0.06791 H        1 UNL1     0.0683
     35 H         -3.189218   -2.945039   2.163092 H        1 UNL1     0.1085
     36 H         -4.813354   -2.968106   3.447385 H        1 UNL1     0.0691
     37 H         -2.779231   0.69354   4.488964 H        1 UNL1     0.0691
     38 H         -3.32563   -0.995825   9.029902 H        1 UNL1     0.0385
     39 H         -4.888397   -0.587856   9.764655 H        1 UNL1     0.0385
     40 H         -3.66666   1.410895   8.825667 H        1 UNL1     0.0789
     41 H         -5.355648   1.934737   5.93428 H        1 UNL1     0.0623
     42 H         -7.493787   3.135147   5.71167 H        1 UNL1     0.0654
     43 H         -8.382573   2.341279   9.838318 H        1 UNL1     0.0654
     44 H         -6.295974   1.119015   10.079427 H        1 UNL1     0.0623
     45 H         -8.990646   4.436741   7.334931 H        1 UNL1     0.2921
     46 H         -5.37564   -3.911451   6.485446 H        1 UNL1     0.2922
     47 H         0.516391   0.365854   2.263987 H        1 UNL1     0.2126
     48 H         1.202836   -1.887446   -0.284032 H        1 UNL1     0.2101
     49 H         -2.022923   0.930288   -0.902034 H        1 UNL1     0.2100
     50 H         -2.671932   -3.341721   -1.148205 H        1 UNL1     0.2102
@<TRIPOS>BOND
     1     1     2    1
     2     1     6    1
     3     2     3    1
     4     3     4    1
     5     3    29    1
     6     3    33    1
     7     4     5    1
     8     5     6    1
     9     5     7    1
    10     5    35    1
    11     7     8    1
    12     8     9   ar
    13     8    13   ar
    14     9    10   ar
    15     9    36    1
    16    10    11   ar
    17    10    26    1
    18    11    12   ar
    19    11    14    1
    20    12    13   ar
    21    12    17    1
    22    13    37    1
    23    14    15    1
    24    14    25    2
    25    15    16    1
    26    15    38    1
    27    15    39    1
    28    16    17    1
    29    16    18    1
    30    16    40    1
    31    18    19   ar
    32    18    23   ar
    33    19    20   ar
    34    19    41    1
    35    20    21   ar
    36    20    42    1
    37    21    22   ar
    38    21    24    1
    39    22    23   ar
    40    22    43    1
    41    23    44    1
    42    24    45    1
    43    26    46    1
    44    27    47    1
    45    28    48    1
    46    29    49    1
    47    30    50    1
    48     1    31    1
    49     1    27    1
    50     2    32    1
    51     2    28    1
    52     4    34    1
    53     4    30    1
