@<TRIPOS>MOLECULE
*****
 50 53 0 0 0
SMALL
GASTEIGER

@<TRIPOS>ATOM
     1 C         -1.637415   1.035729   1.008436 C.3        1 UNL1     0.1889
     2 C         -0.604919   0.903934   -0.143312 C.3        1 UNL1     0.1342
     3 C         0.330193   2.111846   -0.307555 C.3        1 UNL1     0.1174
     4 C         -0.356836   3.441991   0.011544 C.3        1 UNL1     0.1456
     5 C         -1.16626   3.38921   1.320135 C.3        1 UNL1     0.2326
     6 O         -2.133437   2.343868   1.251601 O.3        1 UNL1     -0.3076
     7 O         -0.344759   3.323577   2.500029 O.3        1 UNL1     -0.4605
     8 C         -1.011857   3.103497   3.691697 C.ar        1 UNL1     0.1310
     9 C         -0.507437   3.383004   4.966349 C.ar        1 UNL1     0.0226
     10 C         -1.26914   3.139714   6.115488 C.ar        1 UNL1     0.1343
     11 C         -2.564131   2.632736   6.01643 C.ar        1 UNL1     0.1007
     12 C         -3.063354   2.311249   4.751437 C.ar        1 UNL1     0.1389
     13 C         -2.296271   2.553496   3.596305 C.ar        1 UNL1     0.0229
     14 C         -3.443718   2.435217   7.191788 C.2        1 UNL1     0.1740
     15 C         -4.872654   2.096387   6.883754 C.3        1 UNL1     0.0520
     16 C         -4.895344   1.121043   5.714932 C.3        1 UNL1     0.1322
     17 O         -4.282139   1.70751   4.545698 O.3        1 UNL1     -0.4828
     18 C         -4.379885   -0.276167   6.068243 C.ar        1 UNL1     -0.0067
     19 C         -4.371129   -1.281572   5.079659 C.ar        1 UNL1     -0.0516
     20 C         -3.950764   -2.582343   5.381735 C.ar        1 UNL1     -0.0198
     21 C         -3.544685   -2.891524   6.667555 C.ar        1 UNL1     0.1169
     22 C         -3.510441   -1.914817   7.654322 C.ar        1 UNL1     -0.0198
     23 C         -3.913252   -0.609477   7.347912 C.ar        1 UNL1     -0.0516
     24 O         -3.178083   -4.178051   6.933735 O.3        1 UNL1     -0.5068
     25 O         -3.074017   2.610013   8.349912 O.2        1 UNL1     -0.2917
     26 O         -0.718524   3.433199   7.328861 O.3        1 UNL1     -0.5058
     27 O         -1.22981   0.398637   2.208753 O.3        1 UNL1     -0.3648
     28 O         -1.321198   0.745144   -1.382036 O.3        1 UNL1     -0.3841
     29 O         1.538525   1.921806   0.431331 O.3        1 UNL1     -0.3863
     30 O         -1.247668   3.786878   -1.071582 O.3        1 UNL1     -0.3829
     31 H         -2.527311   0.478404   0.6961 H        1 UNL1     0.0937
     32 H         0.0   0.0   0.0 H        1 UNL1     0.0671
     33 H         0.637001   2.157509   -1.361834 H        1 UNL1     0.0649
     34 H         0.389301   4.241378   0.079807 H        1 UNL1     0.0683
     35 H         -1.720189   4.336308   1.32692 H        1 UNL1     0.1085
     36 H         0.470465   3.830221   5.107152 H        1 UNL1     0.0691
     37 H         -2.70736   2.293398   2.623243 H        1 UNL1     0.0691
     38 H         -5.386879   3.029403   6.629625 H        1 UNL1     0.0385
     39 H         -5.343932   1.679319   7.780264 H        1 UNL1     0.0385
     40 H         -5.947148   0.979707   5.431642 H        1 UNL1     0.0789
     41 H         -4.693828   -1.06648   4.065138 H        1 UNL1     0.0623
     42 H         -3.959864   -3.351775   4.613683 H        1 UNL1     0.0654
     43 H         -3.179962   -2.14245   8.66074 H        1 UNL1     0.0654
     44 H         -3.863642   0.130862   8.140555 H        1 UNL1     0.0623
     45 H         -3.677356   -4.767229   6.345252 H        1 UNL1     0.2921
     46 H         -1.135944   4.231644   7.688941 H        1 UNL1     0.2922
     47 H         -0.866813   -0.477192   2.016358 H        1 UNL1     0.2126
     48 H         -0.715837   1.029628   -2.093612 H        1 UNL1     0.2101
     49 H         2.290263   1.850086   -0.17821 H        1 UNL1     0.2100
     50 H         -0.702947   3.953156   -1.868666 H        1 UNL1     0.2102
@<TRIPOS>BOND
     1     1     2    1
     2     1     6    1
     3     2     3    1
     4     3     4    1
     5     3    29    1
     6     3    33    1
     7     4     5    1
     8     5     6    1
     9     5     7    1
    10     5    35    1
    11     7     8    1
    12     8     9   ar
    13     8    13   ar
    14     9    10   ar
    15     9    36    1
    16    10    11   ar
    17    10    26    1
    18    11    12   ar
    19    11    14    1
    20    12    13   ar
    21    12    17    1
    22    13    37    1
    23    14    15    1
    24    14    25    2
    25    15    16    1
    26    15    38    1
    27    15    39    1
    28    16    17    1
    29    16    18    1
    30    16    40    1
    31    18    19   ar
    32    18    23   ar
    33    19    20   ar
    34    19    41    1
    35    20    21   ar
    36    20    42    1
    37    21    22   ar
    38    21    24    1
    39    22    23   ar
    40    22    43    1
    41    23    44    1
    42    24    45    1
    43    26    46    1
    44    27    47    1
    45    28    48    1
    46    29    49    1
    47    30    50    1
    48     1    31    1
    49     1    27    1
    50     2    32    1
    51     2    28    1
    52     4    34    1
    53     4    30    1
