@<TRIPOS>MOLECULE
*****
 50 53 0 0 0
SMALL
GASTEIGER

@<TRIPOS>ATOM
     1 C         -0.336145   -1.330211   1.699515 C.3        1 UNL1     0.1889
     2 C         -0.464658   -0.97472   0.193842 C.3        1 UNL1     0.1342
     3 C         -1.905033   -0.958344   -0.340498 C.3        1 UNL1     0.1174
     4 C         -2.794088   -2.016745   0.31714 C.3        1 UNL1     0.1456
     5 C         -2.643762   -2.044728   1.849127 C.3        1 UNL1     0.2326
     6 O         -1.27961   -2.266201   2.199705 O.3        1 UNL1     -0.3076
     7 O         -3.216805   -0.897467   2.502376 O.3        1 UNL1     -0.4605
     8 C         -3.72823   -1.113839   3.769323 C.ar        1 UNL1     0.1310
     9 C         -4.547258   -2.185648   4.140427 C.ar        1 UNL1     0.0226
     10 C         -5.001815   -2.327153   5.456959 C.ar        1 UNL1     0.1343
     11 C         -4.628482   -1.412374   6.440648 C.ar        1 UNL1     0.1007
     12 C         -3.844597   -0.315396   6.073296 C.ar        1 UNL1     0.1389
     13 C         -3.389846   -0.171896   4.748894 C.ar        1 UNL1     0.0229
     14 C         -5.010852   -1.559655   7.864114 C.2        1 UNL1     0.1740
     15 C         -4.340803   -0.614376   8.817545 C.3        1 UNL1     0.0520
     16 C         -4.267911   0.758496   8.16343 C.3        1 UNL1     0.1322
     17 O         -3.508255   0.701969   6.935913 O.3        1 UNL1     -0.4828
     18 C         -5.625541   1.45404   8.037803 C.ar        1 UNL1     -0.0067
     19 C         -6.001425   2.021278   6.802827 C.ar        1 UNL1     -0.0516
     20 C         -7.215083   2.705671   6.66643 C.ar        1 UNL1     -0.0198
     21 C         -8.056336   2.835767   7.756932 C.ar        1 UNL1     0.1169
     22 C         -7.729233   2.259284   8.977387 C.ar        1 UNL1     -0.0198
     23 C         -6.524142   1.558971   9.109204 C.ar        1 UNL1     -0.0516
     24 O         -9.212338   3.541589   7.596073 O.3        1 UNL1     -0.5068
     25 O         -5.76194   -2.440388   8.274796 O.2        1 UNL1     -0.2917
     26 O         -5.798717   -3.394227   5.753414 O.3        1 UNL1     -0.5058
     27 O         -0.229113   -0.19349   2.541653 O.3        1 UNL1     -0.3648
     28 O         0.264418   -1.953532   -0.569755 O.3        1 UNL1     -0.3841
     29 O         -2.45976   0.356331   -0.262784 O.3        1 UNL1     -0.3863
     30 O         -2.448867   -3.317477   -0.206889 O.3        1 UNL1     -0.3829
     31 H         0.62334   -1.845284   1.818543 H        1 UNL1     0.0937
     32 H         0.0   0.0   0.0 H        1 UNL1     0.0671
     33 H         -1.867665   -1.19634   -1.41273 H        1 UNL1     0.0649
     34 H         -3.843625   -1.8358   0.059978 H        1 UNL1     0.0683
     35 H         -3.200615   -2.939883   2.15325 H        1 UNL1     0.1085
     36 H         -4.826701   -2.960617   3.435122 H        1 UNL1     0.0691
     37 H         -2.781687   0.691645   4.488257 H        1 UNL1     0.0691
     38 H         -3.339501   -1.007006   9.02434 H        1 UNL1     0.0385
     39 H         -4.901831   -0.595617   9.758116 H        1 UNL1     0.0385
     40 H         -3.672232   1.401334   8.825582 H        1 UNL1     0.0789
     41 H         -5.354375   1.940799   5.934207 H        1 UNL1     0.0623
     42 H         -7.488206   3.148925   5.711998 H        1 UNL1     0.0654
     43 H         -8.38766   2.3422   9.833838 H        1 UNL1     0.0654
     44 H         -6.305476   1.112316   10.074362 H        1 UNL1     0.0623
     45 H         -8.984037   4.449441   7.33839 H        1 UNL1     0.2921
     46 H         -5.396644   -3.908791   6.47103 H        1 UNL1     0.2922
     47 H         0.515254   0.359101   2.265211 H        1 UNL1     0.2126
     48 H         1.208935   -1.82883   -0.355114 H        1 UNL1     0.2101
     49 H         -2.019273   0.938699   -0.902012 H        1 UNL1     0.2100
     50 H         -2.681389   -3.330591   -1.158453 H        1 UNL1     0.2102
@<TRIPOS>BOND
     1     1     2    1
     2     1     6    1
     3     2     3    1
     4     3     4    1
     5     3    29    1
     6     3    33    1
     7     4     5    1
     8     5     6    1
     9     5     7    1
    10     5    35    1
    11     7     8    1
    12     8     9   ar
    13     8    13   ar
    14     9    10   ar
    15     9    36    1
    16    10    11   ar
    17    10    26    1
    18    11    12   ar
    19    11    14    1
    20    12    13   ar
    21    12    17    1
    22    13    37    1
    23    14    15    1
    24    14    25    2
    25    15    16    1
    26    15    38    1
    27    15    39    1
    28    16    17    1
    29    16    18    1
    30    16    40    1
    31    18    19   ar
    32    18    23   ar
    33    19    20   ar
    34    19    41    1
    35    20    21   ar
    36    20    42    1
    37    21    22   ar
    38    21    24    1
    39    22    23   ar
    40    22    43    1
    41    23    44    1
    42    24    45    1
    43    26    46    1
    44    27    47    1
    45    28    48    1
    46    29    49    1
    47    30    50    1
    48     1    31    1
    49     1    27    1
    50     2    32    1
    51     2    28    1
    52     4    34    1
    53     4    30    1
