@<TRIPOS>MOLECULE
*****
 50 53 0 0 0
SMALL
GASTEIGER

@<TRIPOS>ATOM
     1 C         -0.563803   1.10002   1.800802 C.3        1 UNL1     0.1889
     2 C         0.27867   0.026468   1.060756 C.3        1 UNL1     0.1342
     3 C         0.166702   -1.390573   1.643785 C.3        1 UNL1     0.1174
     4 C         0.012153   -1.39526   3.166681 C.3        1 UNL1     0.1456
     5 C         -1.036447   -0.380007   3.656642 C.3        1 UNL1     0.2326
     6 O         -0.694833   0.928246   3.204269 O.3        1 UNL1     -0.3076
     7 O         -2.389121   -0.753837   3.337513 O.3        1 UNL1     -0.4605
     8 C         -3.366332   -0.285905   4.197529 C.ar        1 UNL1     0.1310
     9 C         -3.772439   -0.912709   5.380531 C.ar        1 UNL1     0.0226
     10 C         -4.761682   -0.349336   6.195338 C.ar        1 UNL1     0.1343
     11 C         -5.352523   0.867805   5.858718 C.ar        1 UNL1     0.1007
     12 C         -4.984598   1.48261   4.658955 C.ar        1 UNL1     0.1389
     13 C         -3.991787   0.914608   3.83851 C.ar        1 UNL1     0.0229
     14 C         -6.34186   1.549606   6.725041 C.2        1 UNL1     0.1740
     15 C         -6.704073   2.948465   6.320636 C.3        1 UNL1     0.0520
     16 C         -6.826509   2.995052   4.803798 C.3        1 UNL1     0.1322
     17 O         -5.578276   2.626091   4.177019 O.3        1 UNL1     -0.4828
     18 C         -8.051717   2.255115   4.261505 C.ar        1 UNL1     -0.0067
     19 C         -9.106571   2.99191   3.684764 C.ar        1 UNL1     -0.0516
     20 C         -10.261855   2.350541   3.222241 C.ar        1 UNL1     -0.0198
     21 C         -10.377289   0.976755   3.337203 C.ar        1 UNL1     0.1169
     22 C         -9.341471   0.220415   3.869997 C.ar        1 UNL1     -0.0198
     23 C         -8.178371   0.859618   4.315725 C.ar        1 UNL1     -0.0516
     24 O         -11.532828   0.391095   2.910435 O.3        1 UNL1     -0.5068
     25 O         -6.790774   1.056536   7.756468 O.2        1 UNL1     -0.2917
     26 O         -5.113195   -1.011527   7.335306 O.3        1 UNL1     -0.5058
     27 O         -1.815738   1.359082   1.185716 O.3        1 UNL1     -0.3648
     28 O         1.665045   0.408848   1.127518 O.3        1 UNL1     -0.3841
     29 O         -0.859636   -2.131897   0.981063 O.3        1 UNL1     -0.3863
     30 O         1.283978   -1.077997   3.772894 O.3        1 UNL1     -0.3829
     31 H         -0.017299   2.044941   1.708404 H        1 UNL1     0.0937
     32 H         0.0   -0.0   0.0 H        1 UNL1     0.0671
     33 H         1.102175   -1.921115   1.417651 H        1 UNL1     0.0649
     34 H         -0.266091   -2.397379   3.511265 H        1 UNL1     0.0683
     35 H         -0.916849   -0.381706   4.747317 H        1 UNL1     0.1085
     36 H         -3.312136   -1.831952   5.725835 H        1 UNL1     0.0691
     37 H         -3.724066   1.412408   2.908987 H        1 UNL1     0.0691
     38 H         -5.907167   3.61196   6.673114 H        1 UNL1     0.0385
     39 H         -7.635218   3.236811   6.820241 H        1 UNL1     0.0385
     40 H         -6.974355   4.046662   4.523123 H        1 UNL1     0.0789
     41 H         -9.044093   4.072208   3.591469 H        1 UNL1     0.0623
     42 H         -11.073359   2.930979   2.79031 H        1 UNL1     0.0654
     43 H         -9.41516   -0.857512   3.950956 H        1 UNL1     0.0654
     44 H         -7.384758   0.236557   4.716746 H        1 UNL1     0.0623
     45 H         -11.378693   0.015366   2.028512 H        1 UNL1     0.2921
     46 H         -5.275437   -0.370157   8.045049 H        1 UNL1     0.2922
     47 H         -1.82143   2.245542   0.798395 H        1 UNL1     0.2126
     48 H         2.170802   -0.40485   1.316825 H        1 UNL1     0.2101
     49 H         -0.566296   -3.045739   0.837397 H        1 UNL1     0.2100
     50 H         1.255005   -0.142548   4.062392 H        1 UNL1     0.2102
@<TRIPOS>BOND
     1     1     2    1
     2     1     6    1
     3     2     3    1
     4     3     4    1
     5     3    29    1
     6     3    33    1
     7     4     5    1
     8     5     6    1
     9     5     7    1
    10     5    35    1
    11     7     8    1
    12     8     9   ar
    13     8    13   ar
    14     9    10   ar
    15     9    36    1
    16    10    11   ar
    17    10    26    1
    18    11    12   ar
    19    11    14    1
    20    12    13   ar
    21    12    17    1
    22    13    37    1
    23    14    15    1
    24    14    25    2
    25    15    16    1
    26    15    38    1
    27    15    39    1
    28    16    17    1
    29    16    18    1
    30    16    40    1
    31    18    19   ar
    32    18    23   ar
    33    19    20   ar
    34    19    41    1
    35    20    21   ar
    36    20    42    1
    37    21    22   ar
    38    21    24    1
    39    22    23   ar
    40    22    43    1
    41    23    44    1
    42    24    45    1
    43    26    46    1
    44    27    47    1
    45    28    48    1
    46    29    49    1
    47    30    50    1
    48     1    31    1
    49     1    27    1
    50     2    32    1
    51     2    28    1
    52     4    34    1
    53     4    30    1
