@<TRIPOS>MOLECULE
*****
 50 53 0 0 0
SMALL
GASTEIGER

@<TRIPOS>ATOM
     1 C         -0.886911   -1.923812   0.532112 C.3        1 UNL1     0.1889
     2 C         -0.023783   -1.024072   -0.392777 C.3        1 UNL1     0.1342
     3 C         -0.479905   -0.98777   -1.859439 C.3        1 UNL1     0.1174
     4 C         -1.047703   -2.326422   -2.337701 C.3        1 UNL1     0.1456
     5 C         -2.045836   -2.935736   -1.336288 C.3        1 UNL1     0.2326
     6 O         -1.421633   -3.09622   -0.064485 O.3        1 UNL1     -0.3076
     7 O         -3.29526   -2.224709   -1.267715 O.3        1 UNL1     -0.4605
     8 C         -4.20518   -2.499658   -2.27269 C.ar        1 UNL1     0.1310
     9 C         -3.968805   -3.327167   -3.375712 C.ar        1 UNL1     0.0226
     10 C         -4.963131   -3.557569   -4.333904 C.ar        1 UNL1     0.1343
     11 C         -6.226978   -2.984431   -4.199573 C.ar        1 UNL1     0.1007
     12 C         -6.4619   -2.123516   -3.124203 C.ar        1 UNL1     0.1389
     13 C         -5.461101   -1.889908   -2.162299 C.ar        1 UNL1     0.0229
     14 C         -7.340232   -3.260644   -5.136871 C.2        1 UNL1     0.1740
     15 C         -8.684742   -2.741823   -4.718939 C.3        1 UNL1     0.0520
     16 C         -8.49916   -1.359798   -4.107771 C.3        1 UNL1     0.1322
     17 O         -7.632624   -1.42171   -2.953496 O.3        1 UNL1     -0.4828
     18 C         -8.122866   -0.28109   -5.126356 C.ar        1 UNL1     -0.0067
     19 C         -8.879008   -0.151835   -6.309468 C.ar        1 UNL1     -0.0516
     20 C         -8.533207   0.792545   -7.283394 C.ar        1 UNL1     -0.0198
     21 C         -7.431625   1.606716   -7.089821 C.ar        1 UNL1     0.1169
     22 C         -6.687231   1.526019   -5.920119 C.ar        1 UNL1     -0.0198
     23 C         -7.043781   0.594363   -4.937802 C.ar        1 UNL1     -0.0516
     24 O         -7.102983   2.488573   -8.077102 O.3        1 UNL1     -0.5068
     25 O         -7.215058   -3.936106   -6.15499 O.2        1 UNL1     -0.2917
     26 O         -4.668245   -4.374014   -5.386541 O.3        1 UNL1     -0.5058
     27 O         -1.874516   -1.2075   1.256211 O.3        1 UNL1     -0.3648
     28 O         1.328469   -1.5179   -0.376798 O.3        1 UNL1     -0.3841
     29 O         -1.372847   0.104715   -2.08585 O.3        1 UNL1     -0.3863
     30 O         0.038038   -3.257885   -2.535773 O.3        1 UNL1     -0.3829
     31 H         -0.215344   -2.313281   1.305022 H        1 UNL1     0.0937
     32 H         0.0   0.0   0.0 H        1 UNL1     0.0671
     33 H         0.402322   -0.776909   -2.47987 H        1 UNL1     0.0649
     34 H         -1.541081   -2.198304   -3.307528 H        1 UNL1     0.0683
     35 H         -2.233049   -3.942985   -1.729074 H        1 UNL1     0.1085
     36 H         -3.025798   -3.846319   -3.507389 H        1 UNL1     0.0691
     37 H         -5.668751   -1.214592   -1.335061 H        1 UNL1     0.0691
     38 H         -9.098321   -3.444681   -3.987865 H        1 UNL1     0.0385
     39 H         -9.348993   -2.723682   -5.589697 H        1 UNL1     0.0385
     40 H         -9.472846   -1.051067   -3.703865 H        1 UNL1     0.0789
     41 H         -9.742724   -0.785349   -6.489208 H        1 UNL1     0.0623
     42 H         -9.117119   0.874425   -8.196823 H        1 UNL1     0.0654
     43 H         -5.831654   2.169064   -5.751622 H        1 UNL1     0.0654
     44 H         -6.446251   0.565895   -4.031716 H        1 UNL1     0.0623
     45 H         -7.765737   2.419328   -8.783274 H        1 UNL1     0.2921
     46 H         -3.749211   -4.676497   -5.313804 H        1 UNL1     0.2922
     47 H         -2.491284   -0.778595   0.646705 H        1 UNL1     0.2126
     48 H         1.87672   -0.818893   0.02884 H        1 UNL1     0.2101
     49 H         -1.722329   0.063309   -2.990252 H        1 UNL1     0.2100
     50 H         -0.233292   -3.894098   -3.22955 H        1 UNL1     0.2102
@<TRIPOS>BOND
     1     1     2    1
     2     1     6    1
     3     2     3    1
     4     3     4    1
     5     3    29    1
     6     3    33    1
     7     4     5    1
     8     5     6    1
     9     5     7    1
    10     5    35    1
    11     7     8    1
    12     8     9   ar
    13     8    13   ar
    14     9    10   ar
    15     9    36    1
    16    10    11   ar
    17    10    26    1
    18    11    12   ar
    19    11    14    1
    20    12    13   ar
    21    12    17    1
    22    13    37    1
    23    14    15    1
    24    14    25    2
    25    15    16    1
    26    15    38    1
    27    15    39    1
    28    16    17    1
    29    16    18    1
    30    16    40    1
    31    18    19   ar
    32    18    23   ar
    33    19    20   ar
    34    19    41    1
    35    20    21   ar
    36    20    42    1
    37    21    22   ar
    38    21    24    1
    39    22    23   ar
    40    22    43    1
    41    23    44    1
    42    24    45    1
    43    26    46    1
    44    27    47    1
    45    28    48    1
    46    29    49    1
    47    30    50    1
    48     1    31    1
    49     1    27    1
    50     2    32    1
    51     2    28    1
    52     4    34    1
    53     4    30    1
