@<TRIPOS>MOLECULE
*****
 50 53 0 0 0
SMALL
GASTEIGER

@<TRIPOS>ATOM
     1 C         -0.330238   -1.327242   1.702991 C.3        1 UNL1     0.1889
     2 C         -0.461477   -0.975672   0.196632 C.3        1 UNL1     0.1342
     3 C         -1.902477   -0.964929   -0.336161 C.3        1 UNL1     0.1174
     4 C         -2.787588   -2.024485   0.324928 C.3        1 UNL1     0.1456
     5 C         -2.635505   -2.048422   1.856809 C.3        1 UNL1     0.2326
     6 O         -1.270302   -2.264923   2.206406 O.3        1 UNL1     -0.3076
     7 O         -3.211324   -0.901382   2.508002 O.3        1 UNL1     -0.4605
     8 C         -3.720279   -1.116234   3.776202 C.ar        1 UNL1     0.1310
     9 C         -4.535334   -2.189741   4.151127 C.ar        1 UNL1     0.0226
     10 C         -4.987594   -2.32942   5.468645 C.ar        1 UNL1     0.1343
     11 C         -4.615832   -1.410992   6.449525 C.ar        1 UNL1     0.1007
     12 C         -3.835996   -0.31242   6.07834 C.ar        1 UNL1     0.1389
     13 C         -3.383561   -0.170765   4.752947 C.ar        1 UNL1     0.0229
     14 C         -4.995738   -1.555947   7.873889 C.2        1 UNL1     0.1740
     15 C         -4.327403   -0.606142   8.824019 C.3        1 UNL1     0.0520
     16 C         -4.259844   0.76532   8.166384 C.3        1 UNL1     0.1322
     17 O         -3.501726   0.708172   6.937946 O.3        1 UNL1     -0.4828
     18 C         -5.61988   1.45618   8.040932 C.ar        1 UNL1     -0.0067
     19 C         -6.000097   2.017485   6.804572 C.ar        1 UNL1     -0.0516
     20 C         -7.21615   2.697596   6.668091 C.ar        1 UNL1     -0.0198
     21 C         -8.055522   2.829303   7.759849 C.ar        1 UNL1     0.1169
     22 C         -7.724085   2.258546   8.981825 C.ar        1 UNL1     -0.0198
     23 C         -6.51656   1.56247   9.113807 C.ar        1 UNL1     -0.0516
     24 O         -9.214036   3.530927   7.598702 O.3        1 UNL1     -0.5068
     25 O         -5.743413   -2.438063   8.28782 O.2        1 UNL1     -0.2917
     26 O         -5.780642   -3.398307   5.768877 O.3        1 UNL1     -0.5058
     27 O         -0.225748   -0.188231   2.542349 O.3        1 UNL1     -0.3648
     28 O         0.269742   -1.954049   -0.565473 O.3        1 UNL1     -0.3841
     29 O         -2.461119   0.348231   -0.260913 O.3        1 UNL1     -0.3863
     30 O         -2.438981   -3.325386   -0.196436 O.3        1 UNL1     -0.3829
     31 H         0.630939   -1.839114   1.822169 H        1 UNL1     0.0937
     32 H         0.0   0.0   0.0 H        1 UNL1     0.0671
     33 H         -1.865556   -1.205322   -1.407873 H        1 UNL1     0.0649
     34 H         -3.837951   -1.847337   0.068497 H        1 UNL1     0.0683
     35 H         -3.189297   -2.944552   2.163639 H        1 UNL1     0.1085
     36 H         -4.813266   -2.967363   3.448148 H        1 UNL1     0.0691
     37 H         -2.778548   0.694073   4.489304 H        1 UNL1     0.0691
     38 H         -3.324555   -0.995034   9.030385 H        1 UNL1     0.0385
     39 H         -4.887174   -0.586839   9.765328 H        1 UNL1     0.0385
     40 H         -3.665312   1.411721   8.826094 H        1 UNL1     0.0789
     41 H         -5.354619   1.935652   5.93491 H        1 UNL1     0.0623
     42 H         -7.492638   3.136319   5.712534 H        1 UNL1     0.0654
     43 H         -8.380974   2.342734   9.839333 H        1 UNL1     0.0654
     44 H         -6.294496   1.12022   10.080216 H        1 UNL1     0.0623
     45 H         -8.989106   4.438287   7.336364 H        1 UNL1     0.2921
     46 H         -5.375395   -3.910365   6.4865 H        1 UNL1     0.2922
     47 H         0.516737   0.365884   2.263903 H        1 UNL1     0.2126
     48 H         1.202563   -1.887607   -0.284113 H        1 UNL1     0.2101
     49 H         -2.022986   0.93048   -0.901865 H        1 UNL1     0.2100
     50 H         -2.672501   -3.341437   -1.147711 H        1 UNL1     0.2102
@<TRIPOS>BOND
     1     1     2    1
     2     1     6    1
     3     2     3    1
     4     3     4    1
     5     3    29    1
     6     3    33    1
     7     4     5    1
     8     5     6    1
     9     5     7    1
    10     5    35    1
    11     7     8    1
    12     8     9   ar
    13     8    13   ar
    14     9    10   ar
    15     9    36    1
    16    10    11   ar
    17    10    26    1
    18    11    12   ar
    19    11    14    1
    20    12    13   ar
    21    12    17    1
    22    13    37    1
    23    14    15    1
    24    14    25    2
    25    15    16    1
    26    15    38    1
    27    15    39    1
    28    16    17    1
    29    16    18    1
    30    16    40    1
    31    18    19   ar
    32    18    23   ar
    33    19    20   ar
    34    19    41    1
    35    20    21   ar
    36    20    42    1
    37    21    22   ar
    38    21    24    1
    39    22    23   ar
    40    22    43    1
    41    23    44    1
    42    24    45    1
    43    26    46    1
    44    27    47    1
    45    28    48    1
    46    29    49    1
    47    30    50    1
    48     1    31    1
    49     1    27    1
    50     2    32    1
    51     2    28    1
    52     4    34    1
    53     4    30    1
