@<TRIPOS>MOLECULE
*****
 50 53 0 0 0
SMALL
GASTEIGER

@<TRIPOS>ATOM
     1 C         -0.335389   -1.329569   1.700166 C.3        1 UNL1     0.1889
     2 C         -0.464339   -0.974768   0.194368 C.3        1 UNL1     0.1342
     3 C         -1.904836   -0.959032   -0.339658 C.3        1 UNL1     0.1174
     4 C         -2.793445   -2.0174   0.318636 C.3        1 UNL1     0.1456
     5 C         -2.642771   -2.044676   1.850601 C.3        1 UNL1     0.2326
     6 O         -1.278477   -2.26561   2.200972 O.3        1 UNL1     -0.3076
     7 O         -3.215994   -0.897294   2.50348 O.3        1 UNL1     -0.4605
     8 C         -3.72665   -1.113157   3.770824 C.ar        1 UNL1     0.1310
     9 C         -4.544992   -2.185123   4.142989 C.ar        1 UNL1     0.0226
     10 C         -4.998789   -2.326064   5.459844 C.ar        1 UNL1     0.1343
     11 C         -4.625355   -1.410538   6.442798 C.ar        1 UNL1     0.1007
     12 C         -3.842167   -0.313417   6.07439 C.ar        1 UNL1     0.1389
     13 C         -3.388181   -0.170485   4.749664 C.ar        1 UNL1     0.0229
     14 C         -5.006907   -1.557158   7.866552 C.2        1 UNL1     0.1740
     15 C         -4.336786   -0.611015   8.819075 C.3        1 UNL1     0.0520
     16 C         -4.264869   0.761507   8.164118 C.3        1 UNL1     0.1322
     17 O         -3.505835   0.704608   6.936233 O.3        1 UNL1     -0.4828
     18 C         -5.622884   1.456356   8.0388 C.ar        1 UNL1     -0.0067
     19 C         -6.000468   2.021064   6.803183 C.ar        1 UNL1     -0.0516
     20 C         -7.21452   2.704788   6.666941 C.ar        1 UNL1     -0.0198
     21 C         -8.054481   2.836729   7.758218 C.ar        1 UNL1     0.1169
     22 C         -7.725691   2.262732   8.97939 C.ar        1 UNL1     -0.0198
     23 C         -6.520207   1.563076   9.111095 C.ar        1 UNL1     -0.0516
     24 O         -9.210914   3.541854   7.597401 O.3        1 UNL1     -0.5068
     25 O         -5.757374   -2.437995   8.278148 O.2        1 UNL1     -0.2917
     26 O         -5.795045   -3.393329   5.757345 O.3        1 UNL1     -0.5058
     27 O         -0.228493   -0.192453   2.541788 O.3        1 UNL1     -0.3648
     28 O         0.264846   -1.953704   -0.568966 O.3        1 UNL1     -0.3841
     29 O         -2.459919   0.355519   -0.262391 O.3        1 UNL1     -0.3863
     30 O         -2.447971   -3.318261   -0.204906 O.3        1 UNL1     -0.3829
     31 H         0.624268   -1.844318   1.819204 H        1 UNL1     0.0937
     32 H         0.0   0.0   0.0 H        1 UNL1     0.0671
     33 H         -1.867639   -1.197483   -1.411795 H        1 UNL1     0.0649
     34 H         -3.84309   -1.836865   0.061629 H        1 UNL1     0.0683
     35 H         -3.199301   -2.939857   2.155237 H        1 UNL1     0.1085
     36 H         -4.824452   -2.960634   3.438286 H        1 UNL1     0.0691
     37 H         -2.780555   0.693181   4.4882 H        1 UNL1     0.0691
     38 H         -3.335196   -1.003065   9.025571 H        1 UNL1     0.0385
     39 H         -4.897327   -0.591961   9.759931 H        1 UNL1     0.0385
     40 H         -3.669134   1.405006   8.825578 H        1 UNL1     0.0789
     41 H         -5.354456   1.939107   5.933929 H        1 UNL1     0.0623
     42 H         -7.48896   3.146092   5.711983 H        1 UNL1     0.0654
     43 H         -8.383096   2.347098   9.836485 H        1 UNL1     0.0654
     44 H         -6.30021   1.118373   10.076851 H        1 UNL1     0.0623
     45 H         -8.983232   4.449278   7.337672 H        1 UNL1     0.2921
     46 H         -5.392272   -3.907385   6.474932 H        1 UNL1     0.2922
     47 H         0.515656   0.360229   2.26494 H        1 UNL1     0.2126
     48 H         1.197721   -1.889885   -0.287179 H        1 UNL1     0.2101
     49 H         -2.019621   0.937778   -0.901849 H        1 UNL1     0.2100
     50 H         -2.680701   -3.331854   -1.156412 H        1 UNL1     0.2102
@<TRIPOS>BOND
     1     1     2    1
     2     1     6    1
     3     2     3    1
     4     3     4    1
     5     3    29    1
     6     3    33    1
     7     4     5    1
     8     5     6    1
     9     5     7    1
    10     5    35    1
    11     7     8    1
    12     8     9   ar
    13     8    13   ar
    14     9    10   ar
    15     9    36    1
    16    10    11   ar
    17    10    26    1
    18    11    12   ar
    19    11    14    1
    20    12    13   ar
    21    12    17    1
    22    13    37    1
    23    14    15    1
    24    14    25    2
    25    15    16    1
    26    15    38    1
    27    15    39    1
    28    16    17    1
    29    16    18    1
    30    16    40    1
    31    18    19   ar
    32    18    23   ar
    33    19    20   ar
    34    19    41    1
    35    20    21   ar
    36    20    42    1
    37    21    22   ar
    38    21    24    1
    39    22    23   ar
    40    22    43    1
    41    23    44    1
    42    24    45    1
    43    26    46    1
    44    27    47    1
    45    28    48    1
    46    29    49    1
    47    30    50    1
    48     1    31    1
    49     1    27    1
    50     2    32    1
    51     2    28    1
    52     4    34    1
    53     4    30    1
