@<TRIPOS>MOLECULE
*****
 50 53 0 0 0
SMALL
GASTEIGER

@<TRIPOS>ATOM
     1 C         -0.331246   -1.381528   1.659055 C.3        1 UNL1     0.1889
     2 C         -0.467569   -0.978441   0.166112 C.3        1 UNL1     0.1342
     3 C         -1.91114   -0.939493   -0.35834 C.3        1 UNL1     0.1174
     4 C         -2.800578   -2.014417   0.271387 C.3        1 UNL1     0.1456
     5 C         -2.640895   -2.091074   1.800762 C.3        1 UNL1     0.2326
     6 O         -1.275548   -2.328942   2.135598 O.3        1 UNL1     -0.3076
     7 O         -3.205027   -0.962578   2.493274 O.3        1 UNL1     -0.4605
     8 C         -3.719738   -1.218832   3.751421 C.ar        1 UNL1     0.1310
     9 C         -4.53972   -2.301768   4.08635 C.ar        1 UNL1     0.0226
     10 C         -4.997693   -2.484764   5.396569 C.ar        1 UNL1     0.1343
     11 C         -4.626921   -1.60155   6.409634 C.ar        1 UNL1     0.1007
     12 C         -3.842092   -0.493572   6.079161 C.ar        1 UNL1     0.1389
     13 C         -3.383905   -0.308334   4.761139 C.ar        1 UNL1     0.0229
     14 C         -5.012986   -1.793701   7.826739 C.2        1 UNL1     0.1740
     15 C         -4.34542   -0.879069   8.811296 C.3        1 UNL1     0.0520
     16 C         -4.270839   0.513779   8.201075 C.3        1 UNL1     0.1322
     17 O         -3.507998   0.496006   6.974361 O.3        1 UNL1     -0.4828
     18 C         -5.628143   1.213048   8.093962 C.ar        1 UNL1     -0.0067
     19 C         -5.679886   2.570677   7.71663 C.ar        1 UNL1     -0.0516
     20 C         -6.900753   3.253061   7.654995 C.ar        1 UNL1     -0.0198
     21 C         -8.073482   2.592509   7.97469 C.ar        1 UNL1     0.1169
     22 C         -8.058306   1.246717   8.317402 C.ar        1 UNL1     -0.0198
     23 C         -6.839519   0.55919   8.361232 C.ar        1 UNL1     -0.0516
     24 O         -9.239254   3.299741   7.940055 O.3        1 UNL1     -0.5068
     25 O         -5.765132   -2.686913   8.207439 O.2        1 UNL1     -0.2917
     26 O         -5.795356   -3.560611   5.657093 O.3        1 UNL1     -0.5058
     27 O         -0.214197   -0.272238   2.535732 O.3        1 UNL1     -0.3648
     28 O         0.252622   -1.935739   -0.632394 O.3        1 UNL1     -0.3841
     29 O         -2.459809   0.374322   -0.235935 O.3        1 UNL1     -0.3863
     30 O         -2.464111   -3.299444   -0.295345 O.3        1 UNL1     -0.3829
     31 H         0.62677   -1.903949   1.755808 H        1 UNL1     0.0937
     32 H         0.0   0.0   0.0 H        1 UNL1     0.0671
     33 H         -1.881415   -1.143869   -1.437723 H        1 UNL1     0.0649
     34 H         -3.850911   -1.821259   0.026661 H        1 UNL1     0.0683
     35 H         -3.199636   -2.993079   2.080177 H        1 UNL1     0.1085
     36 H         -4.817325   -3.054046   3.356189 H        1 UNL1     0.0691
     37 H         -2.775076   0.562965   4.529495 H        1 UNL1     0.0691
     38 H         -3.344657   -1.278112   9.008181 H        1 UNL1     0.0385
     39 H         -4.908889   -0.889994   9.750531 H        1 UNL1     0.0385
     40 H         -3.676885   1.13533   8.884751 H        1 UNL1     0.0789
     41 H         -4.77243   3.114018   7.469743 H        1 UNL1     0.0623
     42 H         -6.926314   4.303063   7.374185 H        1 UNL1     0.0654
     43 H         -8.972391   0.715794   8.555053 H        1 UNL1     0.0654
     44 H         -6.865951   -0.494288   8.622632 H        1 UNL1     0.0623
     45 H         -9.204122   3.982879   8.629116 H        1 UNL1     0.2921
     46 H         -5.407105   -4.084832   6.37533 H        1 UNL1     0.2922
     47 H         0.51791   0.296762   2.25984 H        1 UNL1     0.2126
     48 H         1.20273   -1.763067   -0.486754 H        1 UNL1     0.2101
     49 H         -2.16049   0.927155   -0.975244 H        1 UNL1     0.2100
     50 H         -2.728568   -3.291543   -1.238591 H        1 UNL1     0.2102
@<TRIPOS>BOND
     1     1     2    1
     2     1     6    1
     3     2     3    1
     4     3     4    1
     5     3    29    1
     6     3    33    1
     7     4     5    1
     8     5     6    1
     9     5     7    1
    10     5    35    1
    11     7     8    1
    12     8     9   ar
    13     8    13   ar
    14     9    10   ar
    15     9    36    1
    16    10    11   ar
    17    10    26    1
    18    11    12   ar
    19    11    14    1
    20    12    13   ar
    21    12    17    1
    22    13    37    1
    23    14    15    1
    24    14    25    2
    25    15    16    1
    26    15    38    1
    27    15    39    1
    28    16    17    1
    29    16    18    1
    30    16    40    1
    31    18    19   ar
    32    18    23   ar
    33    19    20   ar
    34    19    41    1
    35    20    21   ar
    36    20    42    1
    37    21    22   ar
    38    21    24    1
    39    22    23   ar
    40    22    43    1
    41    23    44    1
    42    24    45    1
    43    26    46    1
    44    27    47    1
    45    28    48    1
    46    29    49    1
    47    30    50    1
    48     1    31    1
    49     1    27    1
    50     2    32    1
    51     2    28    1
    52     4    34    1
    53     4    30    1
