@<TRIPOS>MOLECULE
*****
 50 53 0 0 0
SMALL
GASTEIGER

@<TRIPOS>ATOM
     1 C         -0.353094   1.587704   -1.45785 C.3        1 UNL1     0.1889
     2 C         0.328566   1.03131   -0.178902 C.3        1 UNL1     0.1342
     3 C         0.085404   1.862027   1.090446 C.3        1 UNL1     0.1174
     4 C         0.001797   3.364432   0.809542 C.3        1 UNL1     0.1456
     5 C         -0.902557   3.690609   -0.393004 C.3        1 UNL1     0.2326
     6 O         -0.437614   3.002073   -1.551717 O.3        1 UNL1     -0.3076
     7 O         -2.301912   3.47835   -0.132095 O.3        1 UNL1     -0.4605
     8 C         -2.612453   2.927647   1.098278 C.ar        1 UNL1     0.1310
     9 C         -3.895662   2.848408   1.649999 C.ar        1 UNL1     0.0226
     10 C         -4.110836   2.254856   2.899519 C.ar        1 UNL1     0.1343
     11 C         -3.050188   1.704285   3.617668 C.ar        1 UNL1     0.1007
     12 C         -1.758545   1.813929   3.09573 C.ar        1 UNL1     0.1389
     13 C         -1.542096   2.413145   1.840533 C.ar        1 UNL1     0.0229
     14 C         -3.232174   0.991232   4.903199 C.2        1 UNL1     0.1740
     15 C         -2.022562   0.271718   5.423474 C.3        1 UNL1     0.0520
     16 C         -0.799793   1.144842   5.177609 C.3        1 UNL1     0.1322
     17 O         -0.629838   1.403623   3.766504 O.3        1 UNL1     -0.4828
     18 C         -0.745663   2.392613   6.062403 C.ar        1 UNL1     -0.0067
     19 C         -1.758232   2.60704   7.019972 C.ar        1 UNL1     -0.0516
     20 C         -1.764673   3.761108   7.812467 C.ar        1 UNL1     -0.0198
     21 C         -0.770471   4.709643   7.652239 C.ar        1 UNL1     0.1169
     22 C         0.258672   4.51098   6.741067 C.ar        1 UNL1     -0.0198
     23 C         0.275557   3.34828   5.961387 C.ar        1 UNL1     -0.0516
     24 O         -0.830594   5.838666   8.415189 O.3        1 UNL1     -0.5068
     25 O         -4.310938   0.910549   5.484787 O.2        1 UNL1     -0.2917
     26 O         -5.386343   2.210526   3.38191 O.3        1 UNL1     -0.5058
     27 O         -1.595131   0.968161   -1.751614 O.3        1 UNL1     -0.3648
     28 O         1.750677   0.992995   -0.399898 O.3        1 UNL1     -0.3841
     29 O         -1.047112   1.369574   1.809495 O.3        1 UNL1     -0.3863
     30 O         1.327811   3.871231   0.543965 O.3        1 UNL1     -0.3829
     31 H         0.291096   1.313212   -2.300318 H        1 UNL1     0.0937
     32 H         0.0   0.0   0.0 H        1 UNL1     0.0671
     33 H         0.944017   1.711123   1.759574 H        1 UNL1     0.0649
     34 H         -0.370885   3.89037   1.695487 H        1 UNL1     0.0683
     35 H         -0.733666   4.76045   -0.568493 H        1 UNL1     0.1085
     36 H         -4.768885   3.207624   1.116551 H        1 UNL1     0.0691
     37 H         -0.526809   2.487076   1.456841 H        1 UNL1     0.0691
     38 H         -1.944602   -0.678121   4.883794 H        1 UNL1     0.0385
     39 H         -2.166249   0.050313   6.486541 H        1 UNL1     0.0385
     40 H         0.082247   0.552507   5.456292 H        1 UNL1     0.0789
     41 H         -2.554859   1.8819   7.158561 H        1 UNL1     0.0623
     42 H         -2.55753   3.920621   8.539065 H        1 UNL1     0.0654
     43 H         1.050497   5.240226   6.618083 H        1 UNL1     0.0654
     44 H         1.100463   3.220787   5.267037 H        1 UNL1     0.0623
     45 H         0.075686   6.14369   8.583516 H        1 UNL1     0.2921
     46 H         -5.369391   2.288223   4.348909 H        1 UNL1     0.2922
     47 H         -1.515132   0.415709   -2.541713 H        1 UNL1     0.2126
     48 H         2.149328   1.619031   0.234836 H        1 UNL1     0.2101
     49 H         -1.010897   1.67338   2.730464 H        1 UNL1     0.2100
     50 H         1.393494   4.765418   0.938715 H        1 UNL1     0.2102
@<TRIPOS>BOND
     1     1     2    1
     2     1     6    1
     3     2     3    1
     4     3     4    1
     5     3    29    1
     6     3    33    1
     7     4     5    1
     8     5     6    1
     9     5     7    1
    10     5    35    1
    11     7     8    1
    12     8     9   ar
    13     8    13   ar
    14     9    10   ar
    15     9    36    1
    16    10    11   ar
    17    10    26    1
    18    11    12   ar
    19    11    14    1
    20    12    13   ar
    21    12    17    1
    22    13    37    1
    23    14    15    1
    24    14    25    2
    25    15    16    1
    26    15    38    1
    27    15    39    1
    28    16    17    1
    29    16    18    1
    30    16    40    1
    31    18    19   ar
    32    18    23   ar
    33    19    20   ar
    34    19    41    1
    35    20    21   ar
    36    20    42    1
    37    21    22   ar
    38    21    24    1
    39    22    23   ar
    40    22    43    1
    41    23    44    1
    42    24    45    1
    43    26    46    1
    44    27    47    1
    45    28    48    1
    46    29    49    1
    47    30    50    1
    48     1    31    1
    49     1    27    1
    50     2    32    1
    51     2    28    1
    52     4    34    1
    53     4    30    1
