@<TRIPOS>MOLECULE
*****
 50 53 0 0 0
SMALL
GASTEIGER

@<TRIPOS>ATOM
     1 C         -0.846798   0.576358   1.929132 C.3        1 UNL1     0.1889
     2 C         -0.894486   0.5098   0.378894 C.3        1 UNL1     0.1342
     3 C         -1.027347   1.87274   -0.317675 C.3        1 UNL1     0.1174
     4 C         -1.885499   2.862695   0.473957 C.3        1 UNL1     0.1456
     5 C         -1.514524   2.902443   1.967664 C.3        1 UNL1     0.2326
     6 O         -1.627904   1.597814   2.531539 O.3        1 UNL1     -0.3076
     7 O         -0.241285   3.521762   2.22579 O.3        1 UNL1     -0.4605
     8 C         -0.129285   4.199917   3.426244 C.ar        1 UNL1     0.1310
     9 C         -0.893264   5.309167   3.804661 C.ar        1 UNL1     0.0226
     10 C         -0.71644   5.917935   5.052875 C.ar        1 UNL1     0.1343
     11 C         0.213059   5.417044   5.963359 C.ar        1 UNL1     0.1007
     12 C         1.010476   4.335129   5.580776 C.ar        1 UNL1     0.1389
     13 C         0.834326   3.724833   4.324614 C.ar        1 UNL1     0.0229
     14 C         0.382387   5.96919   7.327403 C.2        1 UNL1     0.1740
     15 C         1.262181   5.17274   8.245652 C.3        1 UNL1     0.0520
     16 C         2.458328   4.668862   7.449852 C.3        1 UNL1     0.1322
     17 O         2.029111   3.829823   6.354929 O.3        1 UNL1     -0.4828
     18 C         3.444614   5.770949   7.055682 C.ar        1 UNL1     -0.0067
     19 C         4.684773   5.418661   6.484618 C.ar        1 UNL1     -0.0516
     20 C         5.628841   6.398967   6.156445 C.ar        1 UNL1     -0.0198
     21 C         5.348344   7.731451   6.400649 C.ar        1 UNL1     0.1169
     22 C         4.122549   8.112232   6.931 C.ar        1 UNL1     -0.0198
     23 C         3.170994   7.133574   7.242171 C.ar        1 UNL1     -0.0516
     24 O         6.307033   8.654899   6.103062 O.3        1 UNL1     -0.5068
     25 O         -0.209915   6.966371   7.7315 O.2        1 UNL1     -0.2917
     26 O         -1.492677   6.997041   5.360401 O.3        1 UNL1     -0.5058
     27 O         0.470032   0.544448   2.456131 O.3        1 UNL1     -0.3648
     28 O         -2.032514   -0.282194   -0.008845 O.3        1 UNL1     -0.3841
     29 O         0.258594   2.398901   -0.651803 O.3        1 UNL1     -0.3863
     30 O         -3.275102   2.489206   0.350668 O.3        1 UNL1     -0.3829
     31 H         -1.306613   -0.34771   2.296211 H        1 UNL1     0.0937
     32 H         0.0   0.0   -0.0 H        1 UNL1     0.0671
     33 H         -1.534757   1.710074   -1.278818 H        1 UNL1     0.0649
     34 H         -1.784824   3.867709   0.049442 H        1 UNL1     0.0683
     35 H         -2.304244   3.515213   2.420138 H        1 UNL1     0.1085
     36 H         -1.670643   5.711385   3.164331 H        1 UNL1     0.0691
     37 H         1.468584   2.884627   4.050272 H        1 UNL1     0.0691
     38 H         0.667055   4.339501   8.634322 H        1 UNL1     0.0385
     39 H         1.562309   5.802035   9.090452 H        1 UNL1     0.0385
     40 H         3.023639   3.9945   8.107254 H        1 UNL1     0.0789
     41 H         4.932582   4.37897   6.29153 H        1 UNL1     0.0623
     42 H         6.586304   6.113721   5.727595 H        1 UNL1     0.0654
     43 H         3.88661   9.154038   7.112338 H        1 UNL1     0.0654
     44 H         2.219818   7.467693   7.645251 H        1 UNL1     0.0623
     45 H         6.147874   9.446766   6.641887 H        1 UNL1     0.2921
     46 H         -1.826995   6.90729   6.266816 H        1 UNL1     0.2922
     47 H         0.80383   -0.363455   2.468433 H        1 UNL1     0.2126
     48 H         -1.999318   -0.362081   -0.981598 H        1 UNL1     0.2101
     49 H         0.538252   3.039329   0.021575 H        1 UNL1     0.2100
     50 H         -3.547452   2.643111   -0.577691 H        1 UNL1     0.2102
@<TRIPOS>BOND
     1     1     2    1
     2     1     6    1
     3     2     3    1
     4     3     4    1
     5     3    29    1
     6     3    33    1
     7     4     5    1
     8     5     6    1
     9     5     7    1
    10     5    35    1
    11     7     8    1
    12     8     9   ar
    13     8    13   ar
    14     9    10   ar
    15     9    36    1
    16    10    11   ar
    17    10    26    1
    18    11    12   ar
    19    11    14    1
    20    12    13   ar
    21    12    17    1
    22    13    37    1
    23    14    15    1
    24    14    25    2
    25    15    16    1
    26    15    38    1
    27    15    39    1
    28    16    17    1
    29    16    18    1
    30    16    40    1
    31    18    19   ar
    32    18    23   ar
    33    19    20   ar
    34    19    41    1
    35    20    21   ar
    36    20    42    1
    37    21    22   ar
    38    21    24    1
    39    22    23   ar
    40    22    43    1
    41    23    44    1
    42    24    45    1
    43    26    46    1
    44    27    47    1
    45    28    48    1
    46    29    49    1
    47    30    50    1
    48     1    31    1
    49     1    27    1
    50     2    32    1
    51     2    28    1
    52     4    34    1
    53     4    30    1
