@<TRIPOS>MOLECULE
*****
 50 53 0 0 0
SMALL
GASTEIGER

@<TRIPOS>ATOM
     1 C         -0.40429   -1.359224   1.661284 C.3        1 UNL1     0.1889
     2 C         -0.500034   -0.962713   0.163434 C.3        1 UNL1     0.1342
     3 C         -1.931567   -0.88396   -0.388812 C.3        1 UNL1     0.1174
     4 C         -2.864907   -1.927136   0.230685 C.3        1 UNL1     0.1456
     5 C         -2.736628   -1.997823   1.763301 C.3        1 UNL1     0.2326
     6 O         -1.385697   -2.274375   2.125755 O.3        1 UNL1     -0.3076
     7 O         -3.279366   -0.847998   2.437586 O.3        1 UNL1     -0.4605
     8 C         -3.81472   -1.077677   3.692246 C.ar        1 UNL1     0.1310
     9 C         -4.674316   -2.129723   4.026304 C.ar        1 UNL1     0.0226
     10 C         -5.15098   -2.287745   5.333103 C.ar        1 UNL1     0.1343
     11 C         -4.760228   -1.410468   6.343815 C.ar        1 UNL1     0.1007
     12 C         -3.934955   -0.33217   6.013691 C.ar        1 UNL1     0.1389
     13 C         -3.457924   -0.171969   4.699078 C.ar        1 UNL1     0.0229
     14 C         -5.166381   -1.579325   7.758269 C.2        1 UNL1     0.1740
     15 C         -4.477675   -0.680935   8.74322 C.3        1 UNL1     0.0520
     16 C         -4.349784   0.704207   8.124364 C.3        1 UNL1     0.1322
     17 O         -3.57609   0.651816   6.905461 O.3        1 UNL1     -0.4828
     18 C         -5.681388   1.44841   7.999002 C.ar        1 UNL1     -0.0067
     19 C         -6.022194   2.056474   6.773309 C.ar        1 UNL1     -0.0516
     20 C         -7.210161   2.784868   6.638628 C.ar        1 UNL1     -0.0198
     21 C         -8.060258   2.918435   7.721827 C.ar        1 UNL1     0.1169
     22 C         -7.768329   2.303134   8.932208 C.ar        1 UNL1     -0.0198
     23 C         -6.589405   1.559232   9.061837 C.ar        1 UNL1     -0.0516
     24 O         -9.189572   3.666836   7.563879 O.3        1 UNL1     -0.5068
     25 O         -5.952169   -2.443741   8.137488 O.2        1 UNL1     -0.2917
     26 O         -5.987304   -3.333992   5.592936 O.3        1 UNL1     -0.5058
     27 O         -0.270354   -0.247834   2.532868 O.3        1 UNL1     -0.3648
     28 O         0.205853   -1.94687   -0.614939 O.3        1 UNL1     -0.3841
     29 O         -2.442439   0.446623   -0.285416 O.3        1 UNL1     -0.3863
     30 O         -2.556811   -3.225672   -0.321196 O.3        1 UNL1     -0.3829
     31 H         0.535468   -1.90959   1.779737 H        1 UNL1     0.0937
     32 H         0.0   0.0   0.0 H        1 UNL1     0.0671
     33 H         -1.887593   -1.096718   -1.466086 H        1 UNL1     0.0649
     34 H         -3.904087   -1.704133   -0.035354 H        1 UNL1     0.0683
     35 H         -3.32761   -2.880592   2.037776 H        1 UNL1     0.1085
     36 H         -4.970254   -2.877299   3.298519 H        1 UNL1     0.0691
     37 H         -2.81756   0.676474   4.467624 H        1 UNL1     0.0691
     38 H         -3.49304   -1.112343   8.952764 H        1 UNL1     0.0385
     39 H         -5.050301   -0.66604   9.676845 H        1 UNL1     0.0385
     40 H         -3.741693   1.310057   8.809704 H        1 UNL1     0.0789
     41 H         -5.367301   1.973997   5.910775 H        1 UNL1     0.0623
     42 H         -7.456022   3.259076   5.69169 H        1 UNL1     0.0654
     43 H         -8.434355   2.388715   9.782499 H        1 UNL1     0.0654
     44 H         -6.398217   1.083238   10.01877 H        1 UNL1     0.0623
     45 H         -8.927451   4.571784   7.329189 H        1 UNL1     0.2921
     46 H         -5.611824   -3.880021   6.301653 H        1 UNL1     0.2922
     47 H         0.496131   0.285485   2.280021 H        1 UNL1     0.2126
     48 H         1.136199   -1.922827   -0.318947 H        1 UNL1     0.2101
     49 H         -1.973573   1.029139   -0.90399 H        1 UNL1     0.2100
     50 H         -2.77658   -3.207473   -1.275703 H        1 UNL1     0.2102
@<TRIPOS>BOND
     1     1     2    1
     2     1     6    1
     3     2     3    1
     4     3     4    1
     5     3    29    1
     6     3    33    1
     7     4     5    1
     8     5     6    1
     9     5     7    1
    10     5    35    1
    11     7     8    1
    12     8     9   ar
    13     8    13   ar
    14     9    10   ar
    15     9    36    1
    16    10    11   ar
    17    10    26    1
    18    11    12   ar
    19    11    14    1
    20    12    13   ar
    21    12    17    1
    22    13    37    1
    23    14    15    1
    24    14    25    2
    25    15    16    1
    26    15    38    1
    27    15    39    1
    28    16    17    1
    29    16    18    1
    30    16    40    1
    31    18    19   ar
    32    18    23   ar
    33    19    20   ar
    34    19    41    1
    35    20    21   ar
    36    20    42    1
    37    21    22   ar
    38    21    24    1
    39    22    23   ar
    40    22    43    1
    41    23    44    1
    42    24    45    1
    43    26    46    1
    44    27    47    1
    45    28    48    1
    46    29    49    1
    47    30    50    1
    48     1    31    1
    49     1    27    1
    50     2    32    1
    51     2    28    1
    52     4    34    1
    53     4    30    1
