@<TRIPOS>MOLECULE
*****
 50 53 0 0 0
SMALL
GASTEIGER

@<TRIPOS>ATOM
     1 C         2.110506   0.440414   0.35015 C.3        1 UNL1     0.1889
     2 C         0.704389   0.00249   0.841066 C.3        1 UNL1     0.1342
     3 C         0.125765   0.860329   1.976747 C.3        1 UNL1     0.1174
     4 C         1.19826   1.363009   2.946378 C.3        1 UNL1     0.1456
     5 C         2.424726   1.944778   2.219956 C.3        1 UNL1     0.2326
     6 O         2.978942   0.96712   1.342518 O.3        1 UNL1     -0.3076
     7 O         2.163758   3.203282   1.572356 O.3        1 UNL1     -0.4605
     8 C         3.213477   3.743044   0.851055 C.ar        1 UNL1     0.1310
     9 C         4.465887   3.145622   0.672574 C.ar        1 UNL1     0.0226
     10 C         5.461212   3.765773   -0.092045 C.ar        1 UNL1     0.1343
     11 C         5.219857   4.988462   -0.717041 C.ar        1 UNL1     0.1007
     12 C         3.987272   5.61428   -0.512419 C.ar        1 UNL1     0.1389
     13 C         2.987569   4.991765   0.258619 C.ar        1 UNL1     0.0229
     14 C         6.205806   5.647793   -1.604364 C.2        1 UNL1     0.1740
     15 C         5.699936   6.837233   -2.366517 C.3        1 UNL1     0.0520
     16 C         4.804677   7.654515   -1.445367 C.3        1 UNL1     0.1322
     17 O         3.681845   6.867363   -0.990712 O.3        1 UNL1     -0.4828
     18 C         5.56428   8.378729   -0.331257 C.ar        1 UNL1     -0.0067
     19 C         6.062518   7.639332   0.761109 C.ar        1 UNL1     -0.0516
     20 C         6.720182   8.27686   1.819881 C.ar        1 UNL1     -0.0198
     21 C         6.879107   9.650992   1.801675 C.ar        1 UNL1     0.1169
     22 C         6.428986   10.402482   0.72395 C.ar        1 UNL1     -0.0198
     23 C         5.787622   9.763055   -0.343684 C.ar        1 UNL1     -0.0516
     24 O         7.491114   10.241221   2.868201 O.3        1 UNL1     -0.5068
     25 O         7.343803   5.222414   -1.784636 O.2        1 UNL1     -0.2917
     26 O         6.661448   3.130938   -0.226223 O.3        1 UNL1     -0.5058
     27 O         2.07509   1.263276   -0.805026 O.3        1 UNL1     -0.3648
     28 O         0.791776   -1.349725   1.327464 O.3        1 UNL1     -0.3841
     29 O         -0.685043   1.914318   1.45346 O.3        1 UNL1     -0.3863
     30 O         1.630658   0.268443   3.783424 O.3        1 UNL1     -0.3829
     31 H         2.623071   -0.468943   0.017849 H        1 UNL1     0.0937
     32 H         -0.0   0.0   0.0 H        1 UNL1     0.0671
     33 H         -0.558331   0.227861   2.5596 H        1 UNL1     0.0649
     34 H         0.775126   2.12578   3.609356 H        1 UNL1     0.0683
     35 H         3.156081   2.104594   3.022113 H        1 UNL1     0.1085
     36 H         4.696316   2.169859   1.085986 H        1 UNL1     0.0691
     37 H         2.036864   5.500313   0.403649 H        1 UNL1     0.0691
     38 H         5.140885   6.463373   -3.230935 H        1 UNL1     0.0385
     39 H         6.553208   7.416495   -2.735515 H        1 UNL1     0.0385
     40 H         4.35382   8.449861   -2.054197 H        1 UNL1     0.0789
     41 H         5.942385   6.560707   0.803386 H        1 UNL1     0.0623
     42 H         7.08936   7.697066   2.662234 H        1 UNL1     0.0654
     43 H         6.561535   11.477352   0.692406 H        1 UNL1     0.0654
     44 H         5.45814   10.379944   -1.174187 H        1 UNL1     0.0623
     45 H         6.821833   10.730141   3.373905 H        1 UNL1     0.2921
     46 H         7.381057   3.767555   -0.090965 H        1 UNL1     0.2922
     47 H         1.587173   0.822973   -1.514907 H        1 UNL1     0.2126
     48 H         0.534335   -1.930848   0.586011 H        1 UNL1     0.2101
     49 H         -1.126085   2.383081   2.179778 H        1 UNL1     0.2100
     50 H         2.494699   -0.04632   3.445681 H        1 UNL1     0.2102
@<TRIPOS>BOND
     1     1     2    1
     2     1     6    1
     3     2     3    1
     4     3     4    1
     5     3    29    1
     6     3    33    1
     7     4     5    1
     8     5     6    1
     9     5     7    1
    10     5    35    1
    11     7     8    1
    12     8     9   ar
    13     8    13   ar
    14     9    10   ar
    15     9    36    1
    16    10    11   ar
    17    10    26    1
    18    11    12   ar
    19    11    14    1
    20    12    13   ar
    21    12    17    1
    22    13    37    1
    23    14    15    1
    24    14    25    2
    25    15    16    1
    26    15    38    1
    27    15    39    1
    28    16    17    1
    29    16    18    1
    30    16    40    1
    31    18    19   ar
    32    18    23   ar
    33    19    20   ar
    34    19    41    1
    35    20    21   ar
    36    20    42    1
    37    21    22   ar
    38    21    24    1
    39    22    23   ar
    40    22    43    1
    41    23    44    1
    42    24    45    1
    43    26    46    1
    44    27    47    1
    45    28    48    1
    46    29    49    1
    47    30    50    1
    48     1    31    1
    49     1    27    1
    50     2    32    1
    51     2    28    1
    52     4    34    1
    53     4    30    1
