@<TRIPOS>MOLECULE
*****
 50 53 0 0 0
SMALL
GASTEIGER

@<TRIPOS>ATOM
     1 C         -0.387667   -1.396768   1.633878 C.3        1 UNL1     0.1889
     2 C         -0.424565   -1.002839   0.132746 C.3        1 UNL1     0.1342
     3 C         -1.82077   -1.044613   -0.507044 C.3        1 UNL1     0.1174
     4 C         -2.697423   -2.166966   0.054133 C.3        1 UNL1     0.1456
     5 C         -2.658322   -2.233649   1.59179 C.3        1 UNL1     0.2326
     6 O         -1.313559   -2.394959   2.037279 O.3        1 UNL1     -0.3076
     7 O         -3.338432   -1.137855   2.230545 O.3        1 UNL1     -0.4605
     8 C         -3.92843   -1.418577   3.449817 C.ar        1 UNL1     0.1310
     9 C         -4.713384   -2.542084   3.730669 C.ar        1 UNL1     0.0226
     10 C         -5.254397   -2.746626   5.005569 C.ar        1 UNL1     0.1343
     11 C         -5.003581   -1.843853   6.03801 C.ar        1 UNL1     0.1007
     12 C         -4.255255   -0.697155   5.758947 C.ar        1 UNL1     0.1389
     13 C         -3.713584   -0.490375   4.476268 C.ar        1 UNL1     0.0229
     14 C         -5.480187   -2.053648   7.424728 C.2        1 UNL1     0.1740
     15 C         -4.933314   -1.104149   8.449876 C.3        1 UNL1     0.0520
     16 C         -4.887021   0.289778   7.839316 C.3        1 UNL1     0.1322
     17 O         -4.037983   0.309759   6.670639 O.3        1 UNL1     -0.4828
     18 C         -6.267384   0.917543   7.63139 C.ar        1 UNL1     -0.0067
     19 C         -6.582938   1.49992   6.38661 C.ar        1 UNL1     -0.0516
     20 C         -7.818536   2.124305   6.178277 C.ar        1 UNL1     -0.0198
     21 C         -8.742156   2.179286   7.206737 C.ar        1 UNL1     0.1169
     22 C         -8.473638   1.585577   8.433215 C.ar        1 UNL1     -0.0198
     23 C         -7.245388   0.944988   8.635954 C.ar        1 UNL1     -0.0516
     24 O         -9.919714   2.828748   6.978798 O.3        1 UNL1     -0.5068
     25 O         -6.21066   -2.9841   7.755111 O.2        1 UNL1     -0.2917
     26 O         -6.01213   -3.862007   5.213774 O.3        1 UNL1     -0.5058
     27 O         -0.403766   -0.282129   2.511436 O.3        1 UNL1     -0.3648
     28 O         0.40996   -1.919083   -0.599901 O.3        1 UNL1     -0.3841
     29 O         -2.449515   0.236713   -0.436219 O.3        1 UNL1     -0.3863
     30 O         -2.245407   -3.431638   -0.476881 O.3        1 UNL1     -0.3829
     31 H         0.586815   -1.865008   1.810557 H        1 UNL1     0.0937
     32 H         0.0   0.0   0.0 H        1 UNL1     0.0671
     33 H         -1.692308   -1.247702   -1.579411 H        1 UNL1     0.0649
     34 H         -3.733528   -2.03271   -0.27581 H        1 UNL1     0.0683
     35 H         -3.187044   -3.165171   1.829692 H        1 UNL1     0.1085
     36 H         -4.898517   -3.308841   2.986403 H        1 UNL1     0.0691
     37 H         -3.13546   0.410982   4.28438 H        1 UNL1     0.0691
     38 H         -3.930051   -1.450452   8.720178 H        1 UNL1     0.0385
     39 H         -5.561594   -1.142878   9.346282 H        1 UNL1     0.0385
     40 H         -4.376688   0.942323   8.56061 H        1 UNL1     0.0789
     41 H         -5.871429   1.478041   5.566288 H        1 UNL1     0.0623
     42 H         -8.045367   2.580148   5.21767 H        1 UNL1     0.0654
     43 H         -9.195729   1.60965   9.240627 H        1 UNL1     0.0654
     44 H         -7.073386   0.482626   9.603157 H        1 UNL1     0.0623
     45 H         -9.722432   3.754231   6.761363 H        1 UNL1     0.2921
     46 H         -5.636288   -4.376485   5.94553 H        1 UNL1     0.2922
     47 H         0.328073   0.316282   2.306069 H        1 UNL1     0.2126
     48 H         1.314894   -1.81618   -0.247426 H        1 UNL1     0.2101
     49 H         -1.995246   0.860222   -1.025005 H        1 UNL1     0.2100
     50 H         -2.406632   -3.427842   -1.443165 H        1 UNL1     0.2102
@<TRIPOS>BOND
     1     1     2    1
     2     1     6    1
     3     2     3    1
     4     3     4    1
     5     3    29    1
     6     3    33    1
     7     4     5    1
     8     5     6    1
     9     5     7    1
    10     5    35    1
    11     7     8    1
    12     8     9   ar
    13     8    13   ar
    14     9    10   ar
    15     9    36    1
    16    10    11   ar
    17    10    26    1
    18    11    12   ar
    19    11    14    1
    20    12    13   ar
    21    12    17    1
    22    13    37    1
    23    14    15    1
    24    14    25    2
    25    15    16    1
    26    15    38    1
    27    15    39    1
    28    16    17    1
    29    16    18    1
    30    16    40    1
    31    18    19   ar
    32    18    23   ar
    33    19    20   ar
    34    19    41    1
    35    20    21   ar
    36    20    42    1
    37    21    22   ar
    38    21    24    1
    39    22    23   ar
    40    22    43    1
    41    23    44    1
    42    24    45    1
    43    26    46    1
    44    27    47    1
    45    28    48    1
    46    29    49    1
    47    30    50    1
    48     1    31    1
    49     1    27    1
    50     2    32    1
    51     2    28    1
    52     4    34    1
    53     4    30    1
