@<TRIPOS>MOLECULE
*****
 50 53 0 0 0
SMALL
GASTEIGER

@<TRIPOS>ATOM
     1 C         -1.231534   -0.29655   -1.779378 C.3        1 UNL1     0.1889
     2 C         0.060254   0.201057   -1.076804 C.3        1 UNL1     0.1342
     3 C         0.374453   1.689514   -1.291835 C.3        1 UNL1     0.1174
     4 C         -0.03052   2.186814   -2.68173 C.3        1 UNL1     0.1456
     5 C         -1.44587   1.731998   -3.082094 C.3        1 UNL1     0.2326
     6 O         -1.533094   0.309932   -3.027431 O.3        1 UNL1     -0.3076
     7 O         -2.490289   2.391779   -2.343719 O.3        1 UNL1     -0.4605
     8 C         -3.586341   2.80352   -3.08038 C.ar        1 UNL1     0.1310
     9 C         -4.193443   4.061129   -2.995844 C.ar        1 UNL1     0.0226
     10 C         -5.292083   4.38987   -3.798851 C.ar        1 UNL1     0.1343
     11 C         -5.795888   3.476344   -4.723779 C.ar        1 UNL1     0.1007
     12 C         -5.223917   2.202975   -4.788313 C.ar        1 UNL1     0.1389
     13 C         -4.120921   1.871758   -3.978914 C.ar        1 UNL1     0.0229
     14 C         -6.900796   3.800189   -5.655689 C.2        1 UNL1     0.1740
     15 C         -7.164468   2.784338   -6.728103 C.3        1 UNL1     0.0520
     16 C         -7.034966   1.395329   -6.118315 C.3        1 UNL1     0.1322
     17 O         -5.708057   1.191236   -5.584717 O.3        1 UNL1     -0.4828
     18 C         -8.168446   1.037638   -5.153948 C.ar        1 UNL1     -0.0067
     19 C         -9.496894   1.365285   -5.494664 C.ar        1 UNL1     -0.0516
     20 C         -10.551668   1.095101   -4.614656 C.ar        1 UNL1     -0.0198
     21 C         -10.290808   0.505614   -3.390612 C.ar        1 UNL1     0.1169
     22 C         -8.997217   0.140861   -3.040732 C.ar        1 UNL1     -0.0198
     23 C         -7.944553   0.394135   -3.928317 C.ar        1 UNL1     -0.0516
     24 O         -11.338618   0.292231   -2.543875 O.3        1 UNL1     -0.5068
     25 O         -7.522611   4.858915   -5.625203 O.2        1 UNL1     -0.2917
     26 O         -5.838956   5.632897   -3.666942 O.3        1 UNL1     -0.5058
     27 O         -2.363705   -0.327513   -0.924967 O.3        1 UNL1     -0.3648
     28 O         1.176338   -0.550654   -1.588659 O.3        1 UNL1     -0.3841
     29 O         -0.177345   2.481589   -0.238142 O.3        1 UNL1     -0.3863
     30 O         0.910636   1.687066   -3.656495 O.3        1 UNL1     -0.3829
     31 H         -1.061302   -1.346966   -2.039619 H        1 UNL1     0.0937
     32 H         0.0   0.0   0.0 H        1 UNL1     0.0671
     33 H         1.463151   1.817177   -1.213369 H        1 UNL1     0.0649
     34 H         0.021482   3.280626   -2.717397 H        1 UNL1     0.0683
     35 H         -1.525967   2.016077   -4.138864 H        1 UNL1     0.1085
     36 H         -3.81404   4.83432   -2.336791 H        1 UNL1     0.0691
     37 H         -3.69446   0.873292   -4.047392 H        1 UNL1     0.0691
     38 H         -6.423659   2.93872   -7.51987 H        1 UNL1     0.0385
     39 H         -8.159317   2.959488   -7.151632 H        1 UNL1     0.0385
     40 H         -7.114286   0.67193   -6.941068 H        1 UNL1     0.0789
     41 H         -9.726715   1.836944   -6.445648 H        1 UNL1     0.0623
     42 H         -11.570284   1.363345   -4.883874 H        1 UNL1     0.0654
     43 H         -8.78366   -0.334952   -2.091045 H        1 UNL1     0.0654
     44 H         -6.947958   0.086301   -3.626852 H        1 UNL1     0.0623
     45 H         -11.117535   -0.454906   -1.964542 H        1 UNL1     0.2921
     46 H         -5.934244   5.846144   -2.72521 H        1 UNL1     0.2922
     47 H         -2.900812   -1.110753   -1.109117 H        1 UNL1     0.2126
     48 H         1.955558   -0.288194   -1.061721 H        1 UNL1     0.2101
     49 H         -0.561912   3.294466   -0.603015 H        1 UNL1     0.2100
     50 H         0.504356   0.913004   -4.098623 H        1 UNL1     0.2102
@<TRIPOS>BOND
     1     1     2    1
     2     1     6    1
     3     2     3    1
     4     3     4    1
     5     3    29    1
     6     3    33    1
     7     4     5    1
     8     5     6    1
     9     5     7    1
    10     5    35    1
    11     7     8    1
    12     8     9   ar
    13     8    13   ar
    14     9    10   ar
    15     9    36    1
    16    10    11   ar
    17    10    26    1
    18    11    12   ar
    19    11    14    1
    20    12    13   ar
    21    12    17    1
    22    13    37    1
    23    14    15    1
    24    14    25    2
    25    15    16    1
    26    15    38    1
    27    15    39    1
    28    16    17    1
    29    16    18    1
    30    16    40    1
    31    18    19   ar
    32    18    23   ar
    33    19    20   ar
    34    19    41    1
    35    20    21   ar
    36    20    42    1
    37    21    22   ar
    38    21    24    1
    39    22    23   ar
    40    22    43    1
    41    23    44    1
    42    24    45    1
    43    26    46    1
    44    27    47    1
    45    28    48    1
    46    29    49    1
    47    30    50    1
    48     1    31    1
    49     1    27    1
    50     2    32    1
    51     2    28    1
    52     4    34    1
    53     4    30    1
