@<TRIPOS>MOLECULE
*****
 50 53 0 0 0
SMALL
GASTEIGER

@<TRIPOS>ATOM
     1 C         -0.293406   -1.309394   1.723428 C.3        1 UNL1     0.1889
     2 C         -0.441703   -0.981293   0.213363 C.3        1 UNL1     0.1342
     3 C         -1.886325   -1.004859   -0.309109 C.3        1 UNL1     0.1174
     4 C         -2.74677   -2.071471   0.372866 C.3        1 UNL1     0.1456
     5 C         -2.583604   -2.071284   1.903794 C.3        1 UNL1     0.2326
     6 O         -1.212178   -2.257381   2.24647 O.3        1 UNL1     -0.3076
     7 O         -3.176304   -0.92626   2.543286 O.3        1 UNL1     -0.4605
     8 C         -3.67272   -1.133058   3.817779 C.ar        1 UNL1     0.1310
     9 C         -4.465159   -2.216212   4.212899 C.ar        1 UNL1     0.0226
     10 C         -4.90596   -2.346131   5.53529 C.ar        1 UNL1     0.1343
     11 C         -4.544818   -1.407601   6.500991 C.ar        1 UNL1     0.1007
     12 C         -3.788033   -0.299988   6.109513 C.ar        1 UNL1     0.1389
     13 C         -3.347144   -0.168199   4.779219 C.ar        1 UNL1     0.0229
     14 C         -4.91247   -1.539988   7.929787 C.2        1 UNL1     0.1740
     15 C         -4.2556   -0.565024   8.862265 C.3        1 UNL1     0.0520
     16 C         -4.217934   0.798295   8.185581 C.3        1 UNL1     0.1322
     17 O         -3.467081   0.73832   6.952823 O.3        1 UNL1     -0.4828
     18 C         -5.591387   1.462086   8.060144 C.ar        1 UNL1     -0.0067
     19 C         -5.989442   2.000888   6.819395 C.ar        1 UNL1     -0.0516
     20 C         -7.218803   2.656481   6.682167 C.ar        1 UNL1     -0.0198
     21 C         -8.053936   2.786   7.777432 C.ar        1 UNL1     0.1169
     22 C         -7.704562   2.236661   9.004218 C.ar        1 UNL1     -0.0198
     23 C         -6.483455   1.564894   9.137196 C.ar        1 UNL1     -0.0516
     24 O         -9.22632   3.463867   7.614919 O.3        1 UNL1     -0.5068
     25 O         -5.64084   -2.430019   8.360839 O.2        1 UNL1     -0.2917
     26 O         -5.676979   -3.425284   5.855511 O.3        1 UNL1     -0.5058
     27 O         -0.204472   -0.157082   2.546262 O.3        1 UNL1     -0.3648
     28 O         0.302427   -1.956337   -0.54047 O.3        1 UNL1     -0.3841
     29 O         -2.468978   0.298561   -0.247903 O.3        1 UNL1     -0.3863
     30 O         -2.377445   -3.372752   -0.133055 O.3        1 UNL1     -0.3829
     31 H         0.678016   -1.801526   1.842695 H        1 UNL1     0.0937
     32 H         0.0   0.0   0.0 H        1 UNL1     0.0671
     33 H         -1.85236   -1.259383   -1.377652 H        1 UNL1     0.0649
     34 H         -3.802032   -1.917544   0.121613 H        1 UNL1     0.0683
     35 H         -3.11833   -2.973249   2.226913 H        1 UNL1     0.1085
     36 H         -4.733257   -3.008422   3.522503 H        1 UNL1     0.0691
     37 H         -2.760087   0.703984   4.49966 H        1 UNL1     0.0691
     38 H         -3.244342   -0.932424   9.066966 H        1 UNL1     0.0385
     39 H         -4.809353   -0.543157   9.807071 H        1 UNL1     0.0385
     40 H         -3.631145   1.464582   8.83231 H        1 UNL1     0.0789
     41 H         -5.347767   1.92036   5.946802 H        1 UNL1     0.0623
     42 H         -7.509173   3.078134   5.72305 H        1 UNL1     0.0654
     43 H         -8.357762   2.319181   9.864701 H        1 UNL1     0.0654
     44 H         -6.247368   1.138834   10.107546 H        1 UNL1     0.0623
     45 H         -9.019962   4.372151   7.340777 H        1 UNL1     0.2921
     46 H         -5.258035   -3.919273   6.577918 H        1 UNL1     0.2922
     47 H         0.525418   0.406963   2.254758 H        1 UNL1     0.2126
     48 H         1.235879   -1.868106   -0.267313 H        1 UNL1     0.2101
     49 H         -2.046323   0.87993   -0.899951 H        1 UNL1     0.2100
     50 H         -2.617239   -3.406372   -1.082308 H        1 UNL1     0.2102
@<TRIPOS>BOND
     1     1     2    1
     2     1     6    1
     3     2     3    1
     4     3     4    1
     5     3    29    1
     6     3    33    1
     7     4     5    1
     8     5     6    1
     9     5     7    1
    10     5    35    1
    11     7     8    1
    12     8     9   ar
    13     8    13   ar
    14     9    10   ar
    15     9    36    1
    16    10    11   ar
    17    10    26    1
    18    11    12   ar
    19    11    14    1
    20    12    13   ar
    21    12    17    1
    22    13    37    1
    23    14    15    1
    24    14    25    2
    25    15    16    1
    26    15    38    1
    27    15    39    1
    28    16    17    1
    29    16    18    1
    30    16    40    1
    31    18    19   ar
    32    18    23   ar
    33    19    20   ar
    34    19    41    1
    35    20    21   ar
    36    20    42    1
    37    21    22   ar
    38    21    24    1
    39    22    23   ar
    40    22    43    1
    41    23    44    1
    42    24    45    1
    43    26    46    1
    44    27    47    1
    45    28    48    1
    46    29    49    1
    47    30    50    1
    48     1    31    1
    49     1    27    1
    50     2    32    1
    51     2    28    1
    52     4    34    1
    53     4    30    1
