@<TRIPOS>MOLECULE
*****
 50 53 0 0 0
SMALL
GASTEIGER

@<TRIPOS>ATOM
     1 C         1.591799   -0.191661   1.483322 C.3        1 UNL1     0.1889
     2 C         0.192586   -0.562167   0.922193 C.3        1 UNL1     0.1342
     3 C         -0.970901   -0.335308   1.899587 C.3        1 UNL1     0.1174
     4 C         -0.586142   -0.612823   3.354944 C.3        1 UNL1     0.1456
     5 C         0.756465   0.032568   3.743843 C.3        1 UNL1     0.2326
     6 O         1.786575   -0.424575   2.870481 O.3        1 UNL1     -0.3076
     7 O         0.69513   1.466943   3.844482 O.3        1 UNL1     -0.4605
     8 C         -0.557803   2.032462   3.689965 C.ar        1 UNL1     0.1310
     9 C         -1.712071   1.348822   3.292973 C.ar        1 UNL1     0.0226
     10 C         -2.94179   2.008609   3.181728 C.ar        1 UNL1     0.1343
     11 C         -3.052008   3.364278   3.488083 C.ar        1 UNL1     0.1007
     12 C         -1.898217   4.066742   3.845984 C.ar        1 UNL1     0.1389
     13 C         -0.661345   3.403682   3.955211 C.ar        1 UNL1     0.0229
     14 C         -4.342051   4.091992   3.468631 C.2        1 UNL1     0.1740
     15 C         -4.313364   5.479688   4.03874 C.3        1 UNL1     0.0520
     16 C         -3.024521   6.15691   3.593531 C.3        1 UNL1     0.1322
     17 O         -1.871485   5.424677   4.064076 O.3        1 UNL1     -0.4828
     18 C         -2.992428   6.500793   2.102411 C.ar        1 UNL1     -0.0067
     19 C         -2.829495   5.467624   1.156774 C.ar        1 UNL1     -0.0516
     20 C         -2.748434   5.752452   -0.211533 C.ar        1 UNL1     -0.0198
     21 C         -2.821411   7.064047   -0.645374 C.ar        1 UNL1     0.1169
     22 C         -3.015327   8.100121   0.258942 C.ar        1 UNL1     -0.0198
     23 C         -3.114926   7.81388   1.625764 C.ar        1 UNL1     -0.0516
     24 O         -2.700615   7.306302   -1.982207 O.3        1 UNL1     -0.5068
     25 O         -5.396799   3.588349   3.091357 O.2        1 UNL1     -0.2917
     26 O         -4.029386   1.284656   2.788522 O.3        1 UNL1     -0.5058
     27 O         2.028431   1.103626   1.103362 O.3        1 UNL1     -0.3648
     28 O         0.195274   -1.959709   0.576397 O.3        1 UNL1     -0.3841
     29 O         -1.541968   0.9617   1.715783 O.3        1 UNL1     -0.3863
     30 O         -0.490581   -2.039776   3.555847 O.3        1 UNL1     -0.3829
     31 H         2.309233   -0.868635   1.006798 H        1 UNL1     0.0937
     32 H         -0.0   0.0   0.0 H        1 UNL1     0.0671
     33 H         -1.769244   -1.044915   1.641078 H        1 UNL1     0.0649
     34 H         -1.371217   -0.246549   4.025691 H        1 UNL1     0.0683
     35 H         0.972029   -0.382846   4.736235 H        1 UNL1     0.1085
     36 H         -1.703589   0.282606   3.094907 H        1 UNL1     0.0691
     37 H         0.22229   3.97345   4.234581 H        1 UNL1     0.0691
     38 H         -4.356305   5.390567   5.129492 H        1 UNL1     0.0385
     39 H         -5.203588   6.023451   3.704673 H        1 UNL1     0.0385
     40 H         -2.968804   7.121761   4.115527 H        1 UNL1     0.0789
     41 H         -2.760352   4.430748   1.47262 H        1 UNL1     0.0623
     42 H         -2.610846   4.948086   -0.929918 H        1 UNL1     0.0654
     43 H         -3.088913   9.12942   -0.071268 H        1 UNL1     0.0654
     44 H         -3.276848   8.646831   2.303126 H        1 UNL1     0.0623
     45 H         -3.578538   7.225883   -2.389025 H        1 UNL1     0.2921
     46 H         -4.839597   1.755647   3.039794 H        1 UNL1     0.2922
     47 H         2.829269   1.34323   1.590301 H        1 UNL1     0.2126
     48 H         0.192392   -2.006478   -0.399071 H        1 UNL1     0.2101
     49 H         -2.49265   0.934068   1.908743 H        1 UNL1     0.2100
     50 H         -0.216557   -2.446007   2.707555 H        1 UNL1     0.2102
@<TRIPOS>BOND
     1     1     2    1
     2     1     6    1
     3     2     3    1
     4     3     4    1
     5     3    29    1
     6     3    33    1
     7     4     5    1
     8     5     6    1
     9     5     7    1
    10     5    35    1
    11     7     8    1
    12     8     9   ar
    13     8    13   ar
    14     9    10   ar
    15     9    36    1
    16    10    11   ar
    17    10    26    1
    18    11    12   ar
    19    11    14    1
    20    12    13   ar
    21    12    17    1
    22    13    37    1
    23    14    15    1
    24    14    25    2
    25    15    16    1
    26    15    38    1
    27    15    39    1
    28    16    17    1
    29    16    18    1
    30    16    40    1
    31    18    19   ar
    32    18    23   ar
    33    19    20   ar
    34    19    41    1
    35    20    21   ar
    36    20    42    1
    37    21    22   ar
    38    21    24    1
    39    22    23   ar
    40    22    43    1
    41    23    44    1
    42    24    45    1
    43    26    46    1
    44    27    47    1
    45    28    48    1
    46    29    49    1
    47    30    50    1
    48     1    31    1
    49     1    27    1
    50     2    32    1
    51     2    28    1
    52     4    34    1
    53     4    30    1
