@<TRIPOS>MOLECULE
*****
 50 53 0 0 0
SMALL
GASTEIGER

@<TRIPOS>ATOM
     1 C         -0.36297   -1.364592   1.666417 C.3        1 UNL1     0.1889
     2 C         -0.445809   -0.989166   0.162378 C.3        1 UNL1     0.1342
     3 C         -1.865708   -1.001303   -0.42431 C.3        1 UNL1     0.1174
     4 C         -2.750191   -2.092156   0.184662 C.3        1 UNL1     0.1456
     5 C         -2.655068   -2.140071   1.720572 C.3        1 UNL1     0.2326
     6 O         -1.29927   -2.332035   2.117849 O.3        1 UNL1     -0.3076
     7 O         -3.281267   -1.018107   2.368948 O.3        1 UNL1     -0.4605
     8 C         -3.832662   -1.26712   3.612927 C.ar        1 UNL1     0.1310
     9 C         -4.636405   -2.365138   3.937972 C.ar        1 UNL1     0.0226
     10 C         -5.134749   -2.538635   5.234681 C.ar        1 UNL1     0.1343
     11 C         -4.821486   -1.629999   6.244675 C.ar        1 UNL1     0.1007
     12 C         -4.053645   -0.50778   5.922453 C.ar        1 UNL1     0.1389
     13 C         -3.554872   -0.332162   4.617917 C.ar        1 UNL1     0.0229
     14 C         -5.251459   -1.809084   7.650806 C.2        1 UNL1     0.1740
     15 C         -4.641471   -0.861912   8.641931 C.3        1 UNL1     0.0520
     16 C         -4.580669   0.522365   8.011029 C.3        1 UNL1     0.1322
     17 O         -3.775604   0.504331   6.811606 O.3        1 UNL1     -0.4828
     18 C         -5.950516   1.184861   7.845679 C.ar        1 UNL1     -0.0067
     19 C         -6.295497   1.762239   6.60639 C.ar        1 UNL1     -0.0516
     20 C         -7.520831   2.41745   6.435459 C.ar        1 UNL1     -0.0198
     21 C         -8.404702   2.508262   7.495813 C.ar        1 UNL1     0.1169
     22 C         -8.107676   1.92063   8.718639 C.ar        1 UNL1     -0.0198
     23 C         -6.890316   1.24936   8.884434 C.ar        1 UNL1     -0.0516
     24 O         -9.572101   3.186766   7.302907 O.3        1 UNL1     -0.5068
     25 O         -5.993758   -2.714991   8.020685 O.2        1 UNL1     -0.2917
     26 O         -5.913794   -3.630195   5.486018 O.3        1 UNL1     -0.5058
     27 O         -0.316379   -0.23872   2.528409 O.3        1 UNL1     -0.3648
     28 O         0.335888   -1.937057   -0.58806 O.3        1 UNL1     -0.3841
     29 O         -2.457022   0.297405   -0.347904 O.3        1 UNL1     -0.3863
     30 O         -2.352285   -3.37535   -0.345217 O.3        1 UNL1     -0.3829
     31 H         0.604661   -1.856768   1.813153 H        1 UNL1     0.0937
     32 H         0.0   0.0   0.0 H        1 UNL1     0.0671
     33 H         -1.783124   -1.22159   -1.497797 H        1 UNL1     0.0649
     34 H         -3.794033   -1.934115   -0.108284 H        1 UNL1     0.0683
     35 H         -3.199071   -3.053776   1.990913 H        1 UNL1     0.1085
     36 H         -4.869658   -3.13595   3.211637 H        1 UNL1     0.0691
     37 H         -2.960372   0.550579   4.392456 H        1 UNL1     0.0691
     38 H         -3.638457   -1.231994   8.879688 H        1 UNL1     0.0385
     39 H         -5.236674   -0.872099   9.561392 H        1 UNL1     0.0385
     40 H         -4.026477   1.169854   8.703956 H        1 UNL1     0.0789
     41 H         -5.615084   1.71245   5.761281 H        1 UNL1     0.0623
     42 H         -7.770217   2.868983   5.478413 H        1 UNL1     0.0654
     43 H         -8.799072   1.97276   9.551204 H        1 UNL1     0.0654
     44 H         -6.695637   0.792859   9.850121 H        1 UNL1     0.0623
     45 H         -9.358341   4.104225   7.067766 H        1 UNL1     0.2921
     46 H         -5.524823   -4.145398   6.210366 H        1 UNL1     0.2922
     47 H         0.422883   0.336935   2.287633 H        1 UNL1     0.2126
     48 H         1.255857   -1.854199   -0.271006 H        1 UNL1     0.2101
     49 H         -2.008902   0.900692   -0.961929 H        1 UNL1     0.2100
     50 H         -2.549583   -3.379625   -1.304784 H        1 UNL1     0.2102
@<TRIPOS>BOND
     1     1     2    1
     2     1     6    1
     3     2     3    1
     4     3     4    1
     5     3    29    1
     6     3    33    1
     7     4     5    1
     8     5     6    1
     9     5     7    1
    10     5    35    1
    11     7     8    1
    12     8     9   ar
    13     8    13   ar
    14     9    10   ar
    15     9    36    1
    16    10    11   ar
    17    10    26    1
    18    11    12   ar
    19    11    14    1
    20    12    13   ar
    21    12    17    1
    22    13    37    1
    23    14    15    1
    24    14    25    2
    25    15    16    1
    26    15    38    1
    27    15    39    1
    28    16    17    1
    29    16    18    1
    30    16    40    1
    31    18    19   ar
    32    18    23   ar
    33    19    20   ar
    34    19    41    1
    35    20    21   ar
    36    20    42    1
    37    21    22   ar
    38    21    24    1
    39    22    23   ar
    40    22    43    1
    41    23    44    1
    42    24    45    1
    43    26    46    1
    44    27    47    1
    45    28    48    1
    46    29    49    1
    47    30    50    1
    48     1    31    1
    49     1    27    1
    50     2    32    1
    51     2    28    1
    52     4    34    1
    53     4    30    1
