@<TRIPOS>MOLECULE
*****
 50 53 0 0 0
SMALL
GASTEIGER

@<TRIPOS>ATOM
     1 C         -0.32485   -1.315882   1.712814 C.3        1 UNL1     0.1889
     2 C         -0.474394   -0.967191   0.207493 C.3        1 UNL1     0.1342
     3 C         -1.923382   -0.934224   -0.302223 C.3        1 UNL1     0.1174
     4 C         -2.815235   -1.976685   0.376739 C.3        1 UNL1     0.1456
     5 C         -2.639005   -1.998052   1.906069 C.3        1 UNL1     0.2326
     6 O         -1.27215   -2.236096   2.234565 O.3        1 UNL1     -0.3076
     7 O         -3.18518   -0.83942   2.562259 O.3        1 UNL1     -0.4605
     8 C         -3.677641   -1.041643   3.839019 C.ar        1 UNL1     0.1310
     9 C         -4.504588   -2.100085   4.230376 C.ar        1 UNL1     0.0226
     10 C         -4.938332   -2.227943   5.555299 C.ar        1 UNL1     0.1343
     11 C         -4.535822   -1.312787   6.527059 C.ar        1 UNL1     0.1007
     12 C         -3.743606   -0.228679   6.139906 C.ar        1 UNL1     0.1389
     13 C         -3.309776   -0.098873   4.8071 C.ar        1 UNL1     0.0229
     14 C         -4.895638   -1.446798   7.957698 C.2        1 UNL1     0.1740
     15 C         -4.19659   -0.505358   8.893951 C.3        1 UNL1     0.0520
     16 C         -4.116394   0.862675   8.230618 C.3        1 UNL1     0.1322
     17 O         -3.378772   0.788872   6.990643 O.3        1 UNL1     -0.4828
     18 C         -5.466456   1.575921   8.124135 C.ar        1 UNL1     -0.0067
     19 C         -5.855387   2.142047   6.892694 C.ar        1 UNL1     -0.0516
     20 C         -7.061841   2.842138   6.773089 C.ar        1 UNL1     -0.0198
     21 C         -7.882803   2.989049   7.87684 C.ar        1 UNL1     0.1169
     22 C         -7.543009   2.414267   9.094626 C.ar        1 UNL1     -0.0198
     23 C         -6.345412   1.698351   9.209879 C.ar        1 UNL1     -0.0516
     24 O         -9.031737   3.709664   7.731699 O.3        1 UNL1     -0.5068
     25 O         -5.651397   -2.314887   8.386341 O.2        1 UNL1     -0.2917
     26 O         -5.744375   -3.282374   5.871613 O.3        1 UNL1     -0.5058
     27 O         -0.18801   -0.175982   2.546294 O.3        1 UNL1     -0.3648
     28 O         0.228159   -1.960141   -0.562686 O.3        1 UNL1     -0.3841
     29 O         -2.458869   0.388302   -0.222773 O.3        1 UNL1     -0.3863
     30 O         -2.496683   -3.284939   -0.145453 O.3        1 UNL1     -0.3829
     31 H         0.629487   -1.843292   1.818446 H        1 UNL1     0.0937
     32 H         0.0   0.0   0.0 H        1 UNL1     0.0671
     33 H         -1.907661   -1.178763   -1.373519 H        1 UNL1     0.0649
     34 H         -3.866493   -1.782922   0.136503 H        1 UNL1     0.0683
     35 H         -3.202601   -2.883808   2.224934 H        1 UNL1     0.1085
     36 H         -4.806556   -2.875152   3.534527 H        1 UNL1     0.0691
     37 H         -2.694566   0.754819   4.531023 H        1 UNL1     0.0691
     38 H         -3.197283   -0.910411   9.0859 H        1 UNL1     0.0385
     39 H         -4.741072   -0.473645   9.843852 H        1 UNL1     0.0385
     40 H         -3.500791   1.501075   8.878691 H        1 UNL1     0.0789
     41 H         -5.224184   2.048484   6.013786 H        1 UNL1     0.0623
     42 H         -7.344988   3.284297   5.821073 H        1 UNL1     0.0654
     43 H         -8.185759   2.510361   9.961545 H        1 UNL1     0.0654
     44 H         -6.116576   1.253583   10.173549 H        1 UNL1     0.0623
     45 H         -8.795209   4.615308   7.473668 H        1 UNL1     0.2921
     46 H         -5.337689   -3.797509   6.586214 H        1 UNL1     0.2922
     47 H         0.55635   0.366996   2.251399 H        1 UNL1     0.2126
     48 H         1.16919   -1.896241   -0.309488 H        1 UNL1     0.2101
     49 H         -2.023543   0.960321   -0.874754 H        1 UNL1     0.2100
     50 H         -2.7509   -3.302104   -1.091387 H        1 UNL1     0.2102
@<TRIPOS>BOND
     1     1     2    1
     2     1     6    1
     3     2     3    1
     4     3     4    1
     5     3    29    1
     6     3    33    1
     7     4     5    1
     8     5     6    1
     9     5     7    1
    10     5    35    1
    11     7     8    1
    12     8     9   ar
    13     8    13   ar
    14     9    10   ar
    15     9    36    1
    16    10    11   ar
    17    10    26    1
    18    11    12   ar
    19    11    14    1
    20    12    13   ar
    21    12    17    1
    22    13    37    1
    23    14    15    1
    24    14    25    2
    25    15    16    1
    26    15    38    1
    27    15    39    1
    28    16    17    1
    29    16    18    1
    30    16    40    1
    31    18    19   ar
    32    18    23   ar
    33    19    20   ar
    34    19    41    1
    35    20    21   ar
    36    20    42    1
    37    21    22   ar
    38    21    24    1
    39    22    23   ar
    40    22    43    1
    41    23    44    1
    42    24    45    1
    43    26    46    1
    44    27    47    1
    45    28    48    1
    46    29    49    1
    47    30    50    1
    48     1    31    1
    49     1    27    1
    50     2    32    1
    51     2    28    1
    52     4    34    1
    53     4    30    1
