@<TRIPOS>MOLECULE
*****
 50 53 0 0 0
SMALL
GASTEIGER

@<TRIPOS>ATOM
     1 C         -0.294248   -1.362962   1.681237 C.3        1 UNL1     0.1889
     2 C         -0.454473   -0.981207   0.185064 C.3        1 UNL1     0.1342
     3 C         -1.905096   -0.964993   -0.320796 C.3        1 UNL1     0.1174
     4 C         -2.774266   -2.041137   0.334624 C.3        1 UNL1     0.1456
     5 C         -2.593835   -2.095773   1.862637 C.3        1 UNL1     0.2326
     6 O         -1.221686   -2.314245   2.182551 O.3        1 UNL1     -0.3076
     7 O         -3.161395   -0.964434   2.547669 O.3        1 UNL1     -0.4605
     8 C         -3.646539   -1.207143   3.820169 C.ar        1 UNL1     0.1310
     9 C         -4.451213   -2.291039   4.187552 C.ar        1 UNL1     0.0226
     10 C         -4.879016   -2.459404   5.509876 C.ar        1 UNL1     0.1343
     11 C         -4.492437   -1.560027   6.502608 C.ar        1 UNL1     0.1007
     12 C         -3.722988   -0.451274   6.140117 C.ar        1 UNL1     0.1389
     13 C         -3.295158   -0.280771   4.809959 C.ar        1 UNL1     0.0229
     14 C         -4.845941   -1.735606   7.93032 C.2        1 UNL1     0.1740
     15 C         -4.163497   -0.803166   8.887595 C.3        1 UNL1     0.0520
     16 C         -4.11228   0.581766   8.25728 C.3        1 UNL1     0.1322
     17 O         -3.376423   0.552607   7.014407 O.3        1 UNL1     -0.4828
     18 C         -5.476572   1.2702   8.170739 C.ar        1 UNL1     -0.0067
     19 C         -5.880189   1.857087   6.953828 C.ar        1 UNL1     -0.0516
     20 C         -7.100678   2.535547   6.853521 C.ar        1 UNL1     -0.0198
     21 C         -7.92127   2.640182   7.962352 C.ar        1 UNL1     0.1169
     22 C         -7.566647   2.043982   9.165526 C.ar        1 UNL1     -0.0198
     23 C         -6.354711   1.349629   9.261133 C.ar        1 UNL1     -0.0516
     24 O         -9.084732   3.340902   7.83686 O.3        1 UNL1     -0.5068
     25 O         -5.583149   -2.628714   8.339425 O.2        1 UNL1     -0.2917
     26 O         -5.663059   -3.537065   5.802293 O.3        1 UNL1     -0.5058
     27 O         -0.178116   -0.240941   2.541683 O.3        1 UNL1     -0.3648
     28 O         0.265842   -1.941071   -0.610243 O.3        1 UNL1     -0.3841
     29 O         -2.466679   0.344253   -0.208404 O.3        1 UNL1     -0.3863
     30 O         -2.430961   -3.329806   -0.2196 O.3        1 UNL1     -0.3829
     31 H         0.670688   -1.873553   1.772203 H        1 UNL1     0.0937
     32 H         0.0   0.0   0.0 H        1 UNL1     0.0671
     33 H         -1.887164   -1.183316   -1.397706 H        1 UNL1     0.0649
     34 H         -3.829777   -1.862731   0.101242 H        1 UNL1     0.0683
     35 H         -3.13884   -3.000051   2.161184 H        1 UNL1     0.1085
     36 H         -4.739381   -3.055023   3.473824 H        1 UNL1     0.0691
     37 H         -2.697803   0.591463   4.553311 H        1 UNL1     0.0691
     38 H         -3.155828   -1.192637   9.067713 H        1 UNL1     0.0385
     39 H         -4.706136   -0.805229   9.839077 H        1 UNL1     0.0385
     40 H         -3.507932   1.216579   8.91932 H        1 UNL1     0.0789
     41 H         -5.249742   1.796727   6.071477 H        1 UNL1     0.0623
     42 H         -7.39527   2.994103   5.912801 H        1 UNL1     0.0654
     43 H         -8.208723   2.106921   10.035978 H        1 UNL1     0.0654
     44 H         -6.114333   0.887107   10.21357 H        1 UNL1     0.0623
     45 H         -8.867383   4.254797   7.591354 H        1 UNL1     0.2921
     46 H         -5.243715   -4.061761   6.502476 H        1 UNL1     0.2922
     47 H         0.557118   0.321614   2.26093 H        1 UNL1     0.2126
     48 H         1.203579   -1.876391   -0.345295 H        1 UNL1     0.2101
     49 H         -2.042425   0.941105   -0.845248 H        1 UNL1     0.2100
     50 H         -2.681957   -3.327308   -1.166546 H        1 UNL1     0.2102
@<TRIPOS>BOND
     1     1     2    1
     2     1     6    1
     3     2     3    1
     4     3     4    1
     5     3    29    1
     6     3    33    1
     7     4     5    1
     8     5     6    1
     9     5     7    1
    10     5    35    1
    11     7     8    1
    12     8     9   ar
    13     8    13   ar
    14     9    10   ar
    15     9    36    1
    16    10    11   ar
    17    10    26    1
    18    11    12   ar
    19    11    14    1
    20    12    13   ar
    21    12    17    1
    22    13    37    1
    23    14    15    1
    24    14    25    2
    25    15    16    1
    26    15    38    1
    27    15    39    1
    28    16    17    1
    29    16    18    1
    30    16    40    1
    31    18    19   ar
    32    18    23   ar
    33    19    20   ar
    34    19    41    1
    35    20    21   ar
    36    20    42    1
    37    21    22   ar
    38    21    24    1
    39    22    23   ar
    40    22    43    1
    41    23    44    1
    42    24    45    1
    43    26    46    1
    44    27    47    1
    45    28    48    1
    46    29    49    1
    47    30    50    1
    48     1    31    1
    49     1    27    1
    50     2    32    1
    51     2    28    1
    52     4    34    1
    53     4    30    1
