@<TRIPOS>MOLECULE
*****
 50 53 0 0 0
SMALL
GASTEIGER

@<TRIPOS>ATOM
     1 C         -0.06574   1.133928   1.865661 C.3        1 UNL1     0.1889
     2 C         -0.536019   0.864504   0.410948 C.3        1 UNL1     0.1342
     3 C         -0.374564   2.05547   -0.546129 C.3        1 UNL1     0.1174
     4 C         -0.60683   3.403957   0.139984 C.3        1 UNL1     0.1456
     5 C         0.131681   3.516169   1.486228 C.3        1 UNL1     0.2326
     6 O         -0.267068   2.453721   2.349404 O.3        1 UNL1     -0.3076
     7 O         1.559958   3.627954   1.348943 O.3        1 UNL1     -0.4605
     8 C         2.065572   4.914679   1.301801 C.ar        1 UNL1     0.1310
     9 C         1.547115   5.961358   0.531758 C.ar        1 UNL1     0.0226
     10 C         2.121275   7.23773   0.565187 C.ar        1 UNL1     0.1343
     11 C         3.214345   7.50473   1.388443 C.ar        1 UNL1     0.1007
     12 C         3.766237   6.457331   2.130841 C.ar        1 UNL1     0.1389
     13 C         3.190367   5.173383   2.095039 C.ar        1 UNL1     0.0229
     14 C         3.808053   8.854809   1.526104 C.2        1 UNL1     0.1740
     15 C         4.827331   9.007744   2.616623 C.3        1 UNL1     0.0520
     16 C         5.701233   7.761223   2.637549 C.3        1 UNL1     0.1322
     17 O         4.90623   6.581807   2.890569 O.3        1 UNL1     -0.4828
     18 C         6.640568   7.646988   1.434501 C.ar        1 UNL1     -0.0067
     19 C         7.569643   6.587743   1.379406 C.ar        1 UNL1     -0.0516
     20 C         8.475009   6.480909   0.316928 C.ar        1 UNL1     -0.0198
     21 C         8.466315   7.42891   -0.690567 C.ar        1 UNL1     0.1169
     22 C         7.541157   8.464688   -0.681404 C.ar        1 UNL1     -0.0198
     23 C         6.623457   8.561352   0.371468 C.ar        1 UNL1     -0.0516
     24 O         9.387893   7.31345   -1.689448 O.3        1 UNL1     -0.5068
     25 O         3.450042   9.822057   0.859211 O.2        1 UNL1     -0.2917
     26 O         1.568518   8.214584   -0.21057 O.3        1 UNL1     -0.5058
     27 O         1.25073   0.674945   2.128393 O.3        1 UNL1     -0.3648
     28 O         -1.934652   0.524321   0.439359 O.3        1 UNL1     -0.3841
     29 O         0.878964   1.990703   -1.229214 O.3        1 UNL1     -0.3863
     30 O         -2.021496   3.580734   0.37055 O.3        1 UNL1     -0.3829
     31 H         -0.699499   0.522815   2.517556 H        1 UNL1     0.0937
     32 H         0.0   0.0   -0.0 H        1 UNL1     0.0671
     33 H         -1.139143   1.961835   -1.329948 H        1 UNL1     0.0649
     34 H         -0.285035   4.218719   -0.518053 H        1 UNL1     0.0683
     35 H         -0.255477   4.444931   1.923709 H        1 UNL1     0.1085
     36 H         0.664965   5.832293   -0.085716 H        1 UNL1     0.0691
     37 H         3.639613   4.374776   2.681468 H        1 UNL1     0.0691
     38 H         4.286227   9.126643   3.561396 H        1 UNL1     0.0385
     39 H         5.409318   9.918487   2.438813 H        1 UNL1     0.0385
     40 H         6.359235   7.841868   3.513363 H        1 UNL1     0.0789
     41 H         7.602702   5.835986   2.162617 H        1 UNL1     0.0623
     42 H         9.194486   5.666207   0.2919 H        1 UNL1     0.0654
     43 H         7.515661   9.203989   -1.473045 H        1 UNL1     0.0654
     44 H         5.907868   9.377348   0.341039 H        1 UNL1     0.0623
     45 H         10.117833   6.758252   -1.370607 H        1 UNL1     0.2921
     46 H         2.247038   8.584484   -0.797253 H        1 UNL1     0.2922
     47 H         1.23257   -0.037744   2.782308 H        1 UNL1     0.2126
     48 H         -2.215927   0.575076   1.37319 H        1 UNL1     0.2101
     49 H         1.018646   1.096102   -1.578457 H        1 UNL1     0.2100
     50 H         -2.48837   3.408284   -0.473253 H        1 UNL1     0.2102
@<TRIPOS>BOND
     1     1     2    1
     2     1     6    1
     3     2     3    1
     4     3     4    1
     5     3    29    1
     6     3    33    1
     7     4     5    1
     8     5     6    1
     9     5     7    1
    10     5    35    1
    11     7     8    1
    12     8     9   ar
    13     8    13   ar
    14     9    10   ar
    15     9    36    1
    16    10    11   ar
    17    10    26    1
    18    11    12   ar
    19    11    14    1
    20    12    13   ar
    21    12    17    1
    22    13    37    1
    23    14    15    1
    24    14    25    2
    25    15    16    1
    26    15    38    1
    27    15    39    1
    28    16    17    1
    29    16    18    1
    30    16    40    1
    31    18    19   ar
    32    18    23   ar
    33    19    20   ar
    34    19    41    1
    35    20    21   ar
    36    20    42    1
    37    21    22   ar
    38    21    24    1
    39    22    23   ar
    40    22    43    1
    41    23    44    1
    42    24    45    1
    43    26    46    1
    44    27    47    1
    45    28    48    1
    46    29    49    1
    47    30    50    1
    48     1    31    1
    49     1    27    1
    50     2    32    1
    51     2    28    1
    52     4    34    1
    53     4    30    1
