@<TRIPOS>MOLECULE
*****
 50 53 0 0 0
SMALL
GASTEIGER

@<TRIPOS>ATOM
     1 C         -0.332281   -1.328201   1.701845 C.3        1 UNL1     0.1889
     2 C         -0.462562   -0.975345   0.195704 C.3        1 UNL1     0.1342
     3 C         -1.90334   -0.962706   -0.337647 C.3        1 UNL1     0.1174
     4 C         -2.789806   -2.021852   0.322282 C.3        1 UNL1     0.1456
     5 C         -2.638352   -2.047116   1.854205 C.3        1 UNL1     0.2326
     6 O         -1.273512   -2.265295   2.204173 O.3        1 UNL1     -0.3076
     7 O         -3.213243   -0.89998   2.506048 O.3        1 UNL1     -0.4605
     8 C         -3.729713   -1.116953   3.770844 C.ar        1 UNL1     0.1310
     9 C         -4.550816   -2.188536   4.137994 C.ar        1 UNL1     0.0226
     10 C         -5.010567   -2.330712   5.452649 C.ar        1 UNL1     0.1343
     11 C         -4.640511   -1.416862   6.438437 C.ar        1 UNL1     0.1007
     12 C         -3.854551   -0.320091   6.074921 C.ar        1 UNL1     0.1389
     13 C         -3.394574   -0.175915   4.752398 C.ar        1 UNL1     0.0229
     14 C         -5.028495   -1.564932   7.860301 C.2        1 UNL1     0.1740
     15 C         -4.361589   -0.620739   8.817006 C.3        1 UNL1     0.0520
     16 C         -4.285338   0.752557   8.164166 C.3        1 UNL1     0.1322
     17 O         -3.520954   0.696454   6.939569 O.3        1 UNL1     -0.4828
     18 C         -5.642055   1.449005   8.033768 C.ar        1 UNL1     -0.0067
     19 C         -6.013589   2.015721   6.797237 C.ar        1 UNL1     -0.0516
     20 C         -7.226308   2.700906   6.656535 C.ar        1 UNL1     -0.0198
     21 C         -8.070937   2.832315   7.744267 C.ar        1 UNL1     0.1169
     22 C         -7.748142   2.25638   8.966127 C.ar        1 UNL1     -0.0198
     23 C         -6.543988   1.555278   9.102233 C.ar        1 UNL1     -0.0516
     24 O         -9.225906   3.538871   7.579272 O.3        1 UNL1     -0.5068
     25 O         -5.781698   -2.445509   8.267431 O.2        1 UNL1     -0.2917
     26 O         -5.809251   -3.39752   5.74524 O.3        1 UNL1     -0.5058
     27 O         -0.226945   -0.189941   2.542115 O.3        1 UNL1     -0.3648
     28 O         0.267946   -1.953893   -0.566861 O.3        1 UNL1     -0.3841
     29 O         -2.460654   0.350973   -0.261616 O.3        1 UNL1     -0.3863
     30 O         -2.442337   -3.322713   -0.199939 O.3        1 UNL1     -0.3829
     31 H         0.62832   -1.841157   1.82101 H        1 UNL1     0.0937
     32 H         0.0   0.0   0.0 H        1 UNL1     0.0671
     33 H         -1.866244   -1.202317   -1.409529 H        1 UNL1     0.0649
     34 H         -3.839884   -1.843422   0.065573 H        1 UNL1     0.0683
     35 H         -3.193191   -2.942908   2.16013 H        1 UNL1     0.1085
     36 H         -4.827979   -2.962832   3.431053 H        1 UNL1     0.0691
     37 H         -2.784892   0.687448   4.494746 H        1 UNL1     0.0691
     38 H         -3.361333   -1.014118   9.027406 H        1 UNL1     0.0385
     39 H         -4.926255   -0.602318   9.755405 H        1 UNL1     0.0385
     40 H         -3.691851   1.394563   8.829089 H        1 UNL1     0.0789
     41 H         -5.363834   1.934213   5.930735 H        1 UNL1     0.0623
     42 H         -7.496067   3.143743   5.700953 H        1 UNL1     0.0654
     43 H         -8.409234   2.340325   9.820423 H        1 UNL1     0.0654
     44 H         -6.328723   1.109085   10.068368 H        1 UNL1     0.0623
     45 H         -8.996125   4.446391   7.321736 H        1 UNL1     0.2921
     46 H         -5.410275   -3.912839   6.464042 H        1 UNL1     0.2922
     47 H         0.516116   0.363708   2.264279 H        1 UNL1     0.2126
     48 H         1.200844   -1.888143   -0.285595 H        1 UNL1     0.2101
     49 H         -2.021668   0.933259   -0.901949 H        1 UNL1     0.2100
     50 H         -2.675498   -3.337795   -1.151318 H        1 UNL1     0.2102
@<TRIPOS>BOND
     1     1     2    1
     2     1     6    1
     3     2     3    1
     4     3     4    1
     5     3    29    1
     6     3    33    1
     7     4     5    1
     8     5     6    1
     9     5     7    1
    10     5    35    1
    11     7     8    1
    12     8     9   ar
    13     8    13   ar
    14     9    10   ar
    15     9    36    1
    16    10    11   ar
    17    10    26    1
    18    11    12   ar
    19    11    14    1
    20    12    13   ar
    21    12    17    1
    22    13    37    1
    23    14    15    1
    24    14    25    2
    25    15    16    1
    26    15    38    1
    27    15    39    1
    28    16    17    1
    29    16    18    1
    30    16    40    1
    31    18    19   ar
    32    18    23   ar
    33    19    20   ar
    34    19    41    1
    35    20    21   ar
    36    20    42    1
    37    21    22   ar
    38    21    24    1
    39    22    23   ar
    40    22    43    1
    41    23    44    1
    42    24    45    1
    43    26    46    1
    44    27    47    1
    45    28    48    1
    46    29    49    1
    47    30    50    1
    48     1    31    1
    49     1    27    1
    50     2    32    1
    51     2    28    1
    52     4    34    1
    53     4    30    1
