@<TRIPOS>MOLECULE
*****
 50 53 0 0 0
SMALL
GASTEIGER

@<TRIPOS>ATOM
     1 C         -0.557794   -1.409203   1.572837 C.3        1 UNL1     0.1889
     2 C         -0.574158   -0.929845   0.096393 C.3        1 UNL1     0.1342
     3 C         -1.976838   -0.716028   -0.492875 C.3        1 UNL1     0.1174
     4 C         -3.00404   -1.717202   0.041565 C.3        1 UNL1     0.1456
     5 C         -2.932627   -1.876304   1.571255 C.3        1 UNL1     0.2326
     6 O         -1.618375   -2.271287   1.958033 O.3        1 UNL1     -0.3076
     7 O         -3.412252   -0.72552   2.290267 O.3        1 UNL1     -0.4605
     8 C         -4.004633   -0.979061   3.51433 C.ar        1 UNL1     0.1310
     9 C         -4.9491   -1.980115   3.765671 C.ar        1 UNL1     0.0226
     10 C         -5.479521   -2.169339   5.04737 C.ar        1 UNL1     0.1343
     11 C         -5.060168   -1.376723   6.114957 C.ar        1 UNL1     0.1007
     12 C         -4.148137   -0.347176   5.867938 C.ar        1 UNL1     0.1389
     13 C         -3.616931   -0.155408   4.578568 C.ar        1 UNL1     0.0229
     14 C         -5.524699   -1.587519   7.505615 C.2        1 UNL1     0.1740
     15 C         -4.805949   -0.794693   8.557459 C.3        1 UNL1     0.0520
     16 C         -4.557094   0.607131   8.018089 C.3        1 UNL1     0.1322
     17 O         -3.74883   0.560205   6.821605 O.3        1 UNL1     -0.4828
     18 C         -5.826162   1.453699   7.893533 C.ar        1 UNL1     -0.0067
     19 C         -6.080615   2.147696   6.692769 C.ar        1 UNL1     -0.0516
     20 C         -7.207342   2.968325   6.562318 C.ar        1 UNL1     -0.0198
     21 C         -8.081319   3.108759   7.625458 C.ar        1 UNL1     0.1169
     22 C         -7.875599   2.411974   8.809101 C.ar        1 UNL1     -0.0198
     23 C         -6.758844   1.576833   8.933406 C.ar        1 UNL1     -0.0516
     24 O         -9.147348   3.946151   7.474599 O.3        1 UNL1     -0.5068
     25 O         -6.383478   -2.409521   7.814316 O.2        1 UNL1     -0.2917
     26 O         -6.397882   -3.162527   5.225628 O.3        1 UNL1     -0.5058
     27 O         -0.372339   -0.357401   2.506703 O.3        1 UNL1     -0.3648
     28 O         0.083666   -1.922451   -0.712747 O.3        1 UNL1     -0.3841
     29 O         -2.392401   0.641864   -0.332975 O.3        1 UNL1     -0.3863
     30 O         -2.773249   -3.004884   -0.570235 O.3        1 UNL1     -0.3829
     31 H         0.334793   -2.033573   1.689147 H        1 UNL1     0.0937
     32 H         0.0   0.0   0.0 H        1 UNL1     0.0671
     33 H         -1.912481   -0.875571   -1.578289 H        1 UNL1     0.0649
     34 H         -4.014683   -1.4038   -0.242655 H        1 UNL1     0.0683
     35 H         -3.595321   -2.725479   1.780103 H        1 UNL1     0.1085
     36 H         -5.274004   -2.665173   2.990265 H        1 UNL1     0.0691
     37 H         -2.909223   0.653887   4.412183 H        1 UNL1     0.0691
     38 H         -3.862836   -1.308294   8.772583 H        1 UNL1     0.0385
     39 H         -5.406953   -0.785365   9.473148 H        1 UNL1     0.0385
     40 H         -3.929912   1.13003   8.752759 H        1 UNL1     0.0789
     41 H         -5.404901   2.06129   5.84684 H        1 UNL1     0.0623
     42 H         -7.386222   3.507609   5.635395 H        1 UNL1     0.0654
     43 H         -8.561775   2.502929   9.642648 H        1 UNL1     0.0654
     44 H         -6.634925   1.039318   9.868589 H        1 UNL1     0.0623
     45 H         -8.812457   4.839995   7.296813 H        1 UNL1     0.2921
     46 H         -6.08703   -3.770707   5.914758 H        1 UNL1     0.2922
     47 H         0.43906   0.129547   2.305773 H        1 UNL1     0.2126
     48 H         1.002856   -1.983248   -0.388517 H        1 UNL1     0.2101
     49 H         -1.861829   1.218908   -0.905082 H        1 UNL1     0.2100
     50 H         -2.959035   -2.921071   -1.528448 H        1 UNL1     0.2102
@<TRIPOS>BOND
     1     1     2    1
     2     1     6    1
     3     2     3    1
     4     3     4    1
     5     3    29    1
     6     3    33    1
     7     4     5    1
     8     5     6    1
     9     5     7    1
    10     5    35    1
    11     7     8    1
    12     8     9   ar
    13     8    13   ar
    14     9    10   ar
    15     9    36    1
    16    10    11   ar
    17    10    26    1
    18    11    12   ar
    19    11    14    1
    20    12    13   ar
    21    12    17    1
    22    13    37    1
    23    14    15    1
    24    14    25    2
    25    15    16    1
    26    15    38    1
    27    15    39    1
    28    16    17    1
    29    16    18    1
    30    16    40    1
    31    18    19   ar
    32    18    23   ar
    33    19    20   ar
    34    19    41    1
    35    20    21   ar
    36    20    42    1
    37    21    22   ar
    38    21    24    1
    39    22    23   ar
    40    22    43    1
    41    23    44    1
    42    24    45    1
    43    26    46    1
    44    27    47    1
    45    28    48    1
    46    29    49    1
    47    30    50    1
    48     1    31    1
    49     1    27    1
    50     2    32    1
    51     2    28    1
    52     4    34    1
    53     4    30    1
