@<TRIPOS>MOLECULE
*****
 50 53 0 0 0
SMALL
GASTEIGER

@<TRIPOS>ATOM
     1 C         -0.035104   -1.16864   1.844954 C.3        1 UNL1     0.1889
     2 C         -0.288209   -1.008459   0.321727 C.3        1 UNL1     0.1342
     3 C         -1.734119   -1.281361   -0.12024 C.3        1 UNL1     0.1174
     4 C         -2.405769   -2.387702   0.697081 C.3        1 UNL1     0.1456
     5 C         -2.184039   -2.220216   2.211396 C.3        1 UNL1     0.2326
     6 O         -0.787655   -2.181144   2.496795 O.3        1 UNL1     -0.3076
     7 O         -2.908557   -1.11317   2.777826 O.3        1 UNL1     -0.4605
     8 C         -2.506672   -0.706554   4.037461 C.ar        1 UNL1     0.1310
     9 C         -3.358912   -0.455005   5.118067 C.ar        1 UNL1     0.0226
     10 C         -2.85273   -0.062584   6.362932 C.ar        1 UNL1     0.1343
     11 C         -1.479016   0.064865   6.564196 C.ar        1 UNL1     0.1007
     12 C         -0.620548   -0.143796   5.481478 C.ar        1 UNL1     0.1389
     13 C         -1.129932   -0.535796   4.229162 C.ar        1 UNL1     0.0229
     14 C         -0.885161   0.394889   7.880469 C.2        1 UNL1     0.1740
     15 C         0.607685   0.271582   7.968527 C.3        1 UNL1     0.0520
     16 C         1.212418   0.80899   6.67878 C.3        1 UNL1     0.1322
     17 O         0.738878   0.058559   5.538744 O.3        1 UNL1     -0.4828
     18 C         1.097466   2.328042   6.530478 C.ar        1 UNL1     -0.0067
     19 C         1.805074   2.978679   5.498889 C.ar        1 UNL1     -0.0516
     20 C         1.759628   4.371441   5.364311 C.ar        1 UNL1     -0.0198
     21 C         1.017795   5.123733   6.257377 C.ar        1 UNL1     0.1169
     22 C         0.283418   4.509124   7.263252 C.ar        1 UNL1     -0.0198
     23 C         0.313901   3.114898   7.386794 C.ar        1 UNL1     -0.0516
     24 O         1.027714   6.480525   6.118027 O.3        1 UNL1     -0.5068
     25 O         -1.553029   0.675224   8.872361 O.2        1 UNL1     -0.2917
     26 O         -3.737406   0.168447   7.37563 O.3        1 UNL1     -0.5058
     27 O         -0.079325   0.057427   2.557409 O.3        1 UNL1     -0.3648
     28 O         0.55727   -1.937746   -0.381334 O.3        1 UNL1     -0.3841
     29 O         -2.494142   -0.071421   -0.143518 O.3        1 UNL1     -0.3863
     30 O         -1.874565   -3.667139   0.288971 O.3        1 UNL1     -0.3829
     31 H         1.000605   -1.507837   1.956002 H        1 UNL1     0.0937
     32 H         0.0   0.0   0.0 H        1 UNL1     0.0671
     33 H         -1.706317   -1.628548   -1.162549 H        1 UNL1     0.0649
     34 H         -3.481279   -2.406013   0.488891 H        1 UNL1     0.0683
     35 H         -2.571248   -3.152997   2.640195 H        1 UNL1     0.1085
     36 H         -4.432174   -0.590474   5.041396 H        1 UNL1     0.0691
     37 H         -0.440649   -0.690975   3.401937 H        1 UNL1     0.0691
     38 H         0.844968   -0.789006   8.104086 H        1 UNL1     0.0385
     39 H         0.961472   0.816654   8.850293 H        1 UNL1     0.0385
     40 H         2.290405   0.601362   6.715595 H        1 UNL1     0.0789
     41 H         2.401964   2.4114   4.790674 H        1 UNL1     0.0623
     42 H         2.319185   4.862417   4.571941 H        1 UNL1     0.0654
     43 H         -0.312878   5.087503   7.958823 H        1 UNL1     0.0654
     44 H         -0.280319   2.667378   8.177663 H        1 UNL1     0.0623
     45 H         0.897017   6.879699   6.99341 H        1 UNL1     0.2921
     46 H         -3.816655   1.123976   7.524281 H        1 UNL1     0.2922
     47 H         0.795089   0.270098   2.912418 H        1 UNL1     0.2126
     48 H         -0.01615   -2.417297   -1.009787 H        1 UNL1     0.2101
     49 H         -3.42434   -0.269667   -0.336454 H        1 UNL1     0.2100
     50 H         -1.373856   -4.040346   1.043768 H        1 UNL1     0.2102
@<TRIPOS>BOND
     1     1     2    1
     2     1     6    1
     3     2     3    1
     4     3     4    1
     5     3    29    1
     6     3    33    1
     7     4     5    1
     8     5     6    1
     9     5     7    1
    10     5    35    1
    11     7     8    1
    12     8     9   ar
    13     8    13   ar
    14     9    10   ar
    15     9    36    1
    16    10    11   ar
    17    10    26    1
    18    11    12   ar
    19    11    14    1
    20    12    13   ar
    21    12    17    1
    22    13    37    1
    23    14    15    1
    24    14    25    2
    25    15    16    1
    26    15    38    1
    27    15    39    1
    28    16    17    1
    29    16    18    1
    30    16    40    1
    31    18    19   ar
    32    18    23   ar
    33    19    20   ar
    34    19    41    1
    35    20    21   ar
    36    20    42    1
    37    21    22   ar
    38    21    24    1
    39    22    23   ar
    40    22    43    1
    41    23    44    1
    42    24    45    1
    43    26    46    1
    44    27    47    1
    45    28    48    1
    46    29    49    1
    47    30    50    1
    48     1    31    1
    49     1    27    1
    50     2    32    1
    51     2    28    1
    52     4    34    1
    53     4    30    1
