@<TRIPOS>MOLECULE
*****
 50 53 0 0 0
SMALL
GASTEIGER

@<TRIPOS>ATOM
     1 C         0.368476   -1.925209   0.963638 C.3        1 UNL1     0.1889
     2 C         -0.335971   -1.039644   -0.099126 C.3        1 UNL1     0.1342
     3 C         -1.871091   -1.077072   -0.049448 C.3        1 UNL1     0.1174
     4 C         -2.418748   -2.450225   0.347594 C.3        1 UNL1     0.1456
     5 C         -1.690193   -3.046504   1.565798 C.3        1 UNL1     0.2326
     6 O         -0.292253   -3.136244   1.300129 O.3        1 UNL1     -0.3076
     7 O         -1.989273   -2.369857   2.800311 O.3        1 UNL1     -0.4605
     8 C         -2.207684   -1.007084   2.707178 C.ar        1 UNL1     0.1310
     9 C         -1.238467   -0.016213   2.897163 C.ar        1 UNL1     0.0226
     10 C         -1.555113   1.340939   2.763831 C.ar        1 UNL1     0.1343
     11 C         -2.8444   1.739537   2.413547 C.ar        1 UNL1     0.1007
     12 C         -3.830581   0.76122   2.261475 C.ar        1 UNL1     0.1389
     13 C         -3.512564   -0.603187   2.398187 C.ar        1 UNL1     0.0229
     14 C         -3.213636   3.154474   2.177385 C.2        1 UNL1     0.1740
     15 C         -4.57707   3.380876   1.593142 C.3        1 UNL1     0.0520
     16 C         -5.551313   2.416559   2.255638 C.3        1 UNL1     0.1322
     17 O         -5.154942   1.046895   2.023302 O.3        1 UNL1     -0.4828
     18 C         -5.850059   2.750958   3.719077 C.ar        1 UNL1     -0.0067
     19 C         -5.184049   2.043608   4.740987 C.ar        1 UNL1     -0.0516
     20 C         -5.468553   2.291531   6.089154 C.ar        1 UNL1     -0.0198
     21 C         -6.420145   3.236947   6.427516 C.ar        1 UNL1     0.1169
     22 C         -7.068626   3.97335   5.444651 C.ar        1 UNL1     -0.0198
     23 C         -6.770978   3.738651   4.09692 C.ar        1 UNL1     -0.0516
     24 O         -6.697929   3.424369   7.749676 O.3        1 UNL1     -0.5068
     25 O         -2.444483   4.09392   2.362668 O.2        1 UNL1     -0.2917
     26 O         -0.56428   2.257469   2.963347 O.3        1 UNL1     -0.5058
     27 O         0.769871   -1.208668   2.120461 O.3        1 UNL1     -0.3648
     28 O         0.061502   -1.492896   -1.406522 O.3        1 UNL1     -0.3841
     29 O         -2.377796   -0.021249   0.769467 O.3        1 UNL1     -0.3863
     30 O         -2.277332   -3.357119   -0.76741 O.3        1 UNL1     -0.3829
     31 H         1.309399   -2.262825   0.515578 H        1 UNL1     0.0937
     32 H         0.0   0.0   0.0 H        1 UNL1     0.0671
     33 H         -2.244591   -0.866411   -1.061298 H        1 UNL1     0.0649
     34 H         -3.489645   -2.376565   0.567035 H        1 UNL1     0.0683
     35 H         -2.070317   -4.074094   1.624462 H        1 UNL1     0.1085
     36 H         -0.20547   -0.263495   3.115999 H        1 UNL1     0.0691
     37 H         -4.298675   -1.345184   2.275869 H        1 UNL1     0.0691
     38 H         -4.510372   3.196746   0.515564 H        1 UNL1     0.0385
     39 H         -4.863078   4.427364   1.74427 H        1 UNL1     0.0385
     40 H         -6.512033   2.516824   1.732682 H        1 UNL1     0.0789
     41 H         -4.439553   1.290027   4.501211 H        1 UNL1     0.0623
     42 H         -4.956834   1.731095   6.867656 H        1 UNL1     0.0654
     43 H         -7.804647   4.726679   5.698972 H        1 UNL1     0.0654
     44 H         -7.288968   4.339747   3.35583 H        1 UNL1     0.0623
     45 H         -6.122464   2.840355   8.269756 H        1 UNL1     0.2921
     46 H         0.099463   1.889875   3.568105 H        1 UNL1     0.2922
     47 H         1.734951   -1.190287   2.184828 H        1 UNL1     0.2126
     48 H         -0.758713   -1.608154   -1.923916 H        1 UNL1     0.2101
     49 H         -2.51176   0.776714   0.233648 H        1 UNL1     0.2100
     50 H         -2.650302   -4.222937   -0.501018 H        1 UNL1     0.2102
@<TRIPOS>BOND
     1     1     2    1
     2     1     6    1
     3     2     3    1
     4     3     4    1
     5     3    29    1
     6     3    33    1
     7     4     5    1
     8     5     6    1
     9     5     7    1
    10     5    35    1
    11     7     8    1
    12     8     9   ar
    13     8    13   ar
    14     9    10   ar
    15     9    36    1
    16    10    11   ar
    17    10    26    1
    18    11    12   ar
    19    11    14    1
    20    12    13   ar
    21    12    17    1
    22    13    37    1
    23    14    15    1
    24    14    25    2
    25    15    16    1
    26    15    38    1
    27    15    39    1
    28    16    17    1
    29    16    18    1
    30    16    40    1
    31    18    19   ar
    32    18    23   ar
    33    19    20   ar
    34    19    41    1
    35    20    21   ar
    36    20    42    1
    37    21    22   ar
    38    21    24    1
    39    22    23   ar
    40    22    43    1
    41    23    44    1
    42    24    45    1
    43    26    46    1
    44    27    47    1
    45    28    48    1
    46    29    49    1
    47    30    50    1
    48     1    31    1
    49     1    27    1
    50     2    32    1
    51     2    28    1
    52     4    34    1
    53     4    30    1
