@<TRIPOS>MOLECULE
*****
 50 53 0 0 0
SMALL
GASTEIGER

@<TRIPOS>ATOM
     1 C         -0.368025   -1.396475   1.638664 C.3        1 UNL1     0.1889
     2 C         -0.486369   -0.971831   0.150171 C.3        1 UNL1     0.1342
     3 C         -1.925217   -0.899908   -0.383691 C.3        1 UNL1     0.1174
     4 C         -2.838431   -1.966483   0.22588 C.3        1 UNL1     0.1456
     5 C         -2.691086   -2.06567   1.755198 C.3        1 UNL1     0.2326
     6 O         -1.332692   -2.332606   2.096342 O.3        1 UNL1     -0.3076
     7 O         -3.23964   -0.936093   2.45838 O.3        1 UNL1     -0.4605
     8 C         -3.767875   -1.199087   3.709511 C.ar        1 UNL1     0.1310
     9 C         -4.609686   -2.271148   4.02469 C.ar        1 UNL1     0.0226
     10 C         -5.08024   -2.462603   5.329231 C.ar        1 UNL1     0.1343
     11 C         -4.700793   -1.599363   6.356206 C.ar        1 UNL1     0.1007
     12 C         -3.893708   -0.501685   6.045563 C.ar        1 UNL1     0.1389
     13 C         -3.422843   -0.307892   4.733252 C.ar        1 UNL1     0.0229
     14 C         -5.100382   -1.802651   7.767998 C.2        1 UNL1     0.1740
     15 C         -4.423426   -0.913031   8.768926 C.3        1 UNL1     0.0520
     16 C         -4.319301   0.485954   8.177356 C.3        1 UNL1     0.1322
     17 O         -3.548166   0.470074   6.955813 O.3        1 UNL1     -0.4828
     18 C         -5.662932   1.211105   8.069952 C.ar        1 UNL1     -0.0067
     19 C         -5.760491   2.375123   7.280168 C.ar        1 UNL1     -0.0516
     20 C         -6.962024   3.088963   7.198232 C.ar        1 UNL1     -0.0198
     21 C         -8.068604   2.654205   7.905546 C.ar        1 UNL1     0.1169
     22 C         -8.013033   1.492904   8.665238 C.ar        1 UNL1     -0.0198
     23 C         -6.816813   0.768635   8.732655 C.ar        1 UNL1     -0.0516
     24 O         -9.210723   3.396148   7.831487 O.3        1 UNL1     -0.5068
     25 O         -5.871264   -2.686857   8.131874 O.2        1 UNL1     -0.2917
     26 O         -5.899076   -3.527026   5.570259 O.3        1 UNL1     -0.5058
     27 O         -0.23719   -0.300851   2.530447 O.3        1 UNL1     -0.3648
     28 O         0.222069   -1.931729   -0.655695 O.3        1 UNL1     -0.3841
     29 O         -2.450887   0.421986   -0.248043 O.3        1 UNL1     -0.3863
     30 O         -2.521229   -3.250029   -0.355138 O.3        1 UNL1     -0.3829
     31 H         0.579667   -1.937429   1.735247 H        1 UNL1     0.0937
     32 H         0.0   0.0   0.0 H        1 UNL1     0.0671
     33 H         -1.891487   -1.090907   -1.465403 H        1 UNL1     0.0649
     34 H         -3.883323   -1.751131   -0.023568 H        1 UNL1     0.0683
     35 H         -3.268036   -2.960882   2.019022 H        1 UNL1     0.1085
     36 H         -4.895635   -3.008812   3.282931 H        1 UNL1     0.0691
     37 H         -2.796712   0.555097   4.517142 H        1 UNL1     0.0691
     38 H         -3.431477   -1.332702   8.967525 H        1 UNL1     0.0385
     39 H         -4.993693   -0.925774   9.704026 H        1 UNL1     0.0385
     40 H         -3.719097   1.087769   8.873124 H        1 UNL1     0.0789
     41 H         -4.903636   2.742099   6.722693 H        1 UNL1     0.0623
     42 H         -7.021281   3.99171   6.595283 H        1 UNL1     0.0654
     43 H         -8.877872   1.135165   9.21112 H        1 UNL1     0.0654
     44 H         -6.812232   -0.139827   9.327232 H        1 UNL1     0.0623
     45 H         -9.042303   4.26012   8.241248 H        1 UNL1     0.2921
     46 H         -5.525511   -4.067404   6.2843 H        1 UNL1     0.2922
     47 H         0.507043   0.258242   2.267023 H        1 UNL1     0.2126
     48 H         1.168489   -1.83956   -0.43315 H        1 UNL1     0.2101
     49 H         -2.002679   1.020465   -0.866692 H        1 UNL1     0.2100
     50 H         -2.778756   -3.225204   -1.300006 H        1 UNL1     0.2102
@<TRIPOS>BOND
     1     1     2    1
     2     1     6    1
     3     2     3    1
     4     3     4    1
     5     3    29    1
     6     3    33    1
     7     4     5    1
     8     5     6    1
     9     5     7    1
    10     5    35    1
    11     7     8    1
    12     8     9   ar
    13     8    13   ar
    14     9    10   ar
    15     9    36    1
    16    10    11   ar
    17    10    26    1
    18    11    12   ar
    19    11    14    1
    20    12    13   ar
    21    12    17    1
    22    13    37    1
    23    14    15    1
    24    14    25    2
    25    15    16    1
    26    15    38    1
    27    15    39    1
    28    16    17    1
    29    16    18    1
    30    16    40    1
    31    18    19   ar
    32    18    23   ar
    33    19    20   ar
    34    19    41    1
    35    20    21   ar
    36    20    42    1
    37    21    22   ar
    38    21    24    1
    39    22    23   ar
    40    22    43    1
    41    23    44    1
    42    24    45    1
    43    26    46    1
    44    27    47    1
    45    28    48    1
    46    29    49    1
    47    30    50    1
    48     1    31    1
    49     1    27    1
    50     2    32    1
    51     2    28    1
    52     4    34    1
    53     4    30    1
