@<TRIPOS>MOLECULE
*****
 50 53 0 0 0
SMALL
GASTEIGER

@<TRIPOS>ATOM
     1 C         -0.330127   -1.327106   1.703118 C.3        1 UNL1     0.1889
     2 C         -0.461546   -0.975615   0.196757 C.3        1 UNL1     0.1342
     3 C         -1.902621   -0.964761   -0.335831 C.3        1 UNL1     0.1174
     4 C         -2.787742   -2.024189   0.325448 C.3        1 UNL1     0.1456
     5 C         -2.635443   -2.048048   1.857309 C.3        1 UNL1     0.2326
     6 O         -1.270213   -2.264664   2.206724 O.3        1 UNL1     -0.3076
     7 O         -3.211056   -0.900911   2.508514 O.3        1 UNL1     -0.4605
     8 C         -3.720701   -1.115848   3.776423 C.ar        1 UNL1     0.1310
     9 C         -4.536411   -2.189083   4.1507 C.ar        1 UNL1     0.0226
     10 C         -4.989351   -2.328885   5.467972 C.ar        1 UNL1     0.1343
     11 C         -4.61764   -1.410865   6.449252 C.ar        1 UNL1     0.1007
     12 C         -3.83714   -0.312549   6.078704 C.ar        1 UNL1     0.1389
     13 C         -3.384019   -0.17077   4.753558 C.ar        1 UNL1     0.0229
     14 C         -4.998278   -1.556001   7.873403 C.2        1 UNL1     0.1740
     15 C         -4.329964   -0.606728   8.82408 C.3        1 UNL1     0.0520
     16 C         -4.261485   0.764866   8.166814 C.3        1 UNL1     0.1322
     17 O         -3.502817   0.707682   6.938717 O.3        1 UNL1     -0.4828
     18 C         -5.621154   1.456363   8.040894 C.ar        1 UNL1     -0.0067
     19 C         -6.000541   2.018142   6.804495 C.ar        1 UNL1     -0.0516
     20 C         -7.216226   2.69883   6.667611 C.ar        1 UNL1     -0.0198
     21 C         -8.056051   2.830642   7.759008 C.ar        1 UNL1     0.1169
     22 C         -7.725442   2.259437   8.980999 C.ar        1 UNL1     -0.0198
     23 C         -6.51829   1.56279   9.113375 C.ar        1 UNL1     -0.0516
     24 O         -9.214176   3.532823   7.597491 O.3        1 UNL1     -0.5068
     25 O         -5.74654   -2.437885   8.286766 O.2        1 UNL1     -0.2917
     26 O         -5.783017   -3.397492   5.767569 O.3        1 UNL1     -0.5058
     27 O         -0.225404   -0.188054   2.542393 O.3        1 UNL1     -0.3648
     28 O         0.269468   -1.95411   -0.565393 O.3        1 UNL1     -0.3841
     29 O         -2.461121   0.348459   -0.260584 O.3        1 UNL1     -0.3863
     30 O         -2.439338   -3.325156   -0.195887 O.3        1 UNL1     -0.3829
     31 H         0.631017   -1.839066   1.822191 H        1 UNL1     0.0937
     32 H         0.0   0.0   0.0 H        1 UNL1     0.0671
     33 H         -1.865876   -1.205222   -1.407535 H        1 UNL1     0.0649
     34 H         -3.838124   -1.846953   0.069155 H        1 UNL1     0.0683
     35 H         -3.189281   -2.944104   2.164271 H        1 UNL1     0.1085
     36 H         -4.81436   -2.966409   3.447401 H        1 UNL1     0.0691
     37 H         -2.778498   0.693863   4.490412 H        1 UNL1     0.0691
     38 H         -3.327387   -0.996118   9.03082 H        1 UNL1     0.0385
     39 H         -4.890168   -0.587407   9.765131 H        1 UNL1     0.0385
     40 H         -3.666975   1.410839   8.826963 H        1 UNL1     0.0789
     41 H         -5.354691   1.936235   5.935116 H        1 UNL1     0.0623
     42 H         -7.492071   3.137911   5.712033 H        1 UNL1     0.0654
     43 H         -8.382696   2.343707   9.838219 H        1 UNL1     0.0654
     44 H         -6.296876   1.120203   10.07978 H        1 UNL1     0.0623
     45 H         -8.988719   4.440147   7.335482 H        1 UNL1     0.2921
     46 H         -5.378335   -3.909908   6.485256 H        1 UNL1     0.2922
     47 H         0.517096   0.36597   2.263807 H        1 UNL1     0.2126
     48 H         1.202275   -1.887988   -0.283914 H        1 UNL1     0.2101
     49 H         -2.022963   0.930648   -0.901573 H        1 UNL1     0.2100
     50 H         -2.672996   -3.341241   -1.147127 H        1 UNL1     0.2102
@<TRIPOS>BOND
     1     1     2    1
     2     1     6    1
     3     2     3    1
     4     3     4    1
     5     3    29    1
     6     3    33    1
     7     4     5    1
     8     5     6    1
     9     5     7    1
    10     5    35    1
    11     7     8    1
    12     8     9   ar
    13     8    13   ar
    14     9    10   ar
    15     9    36    1
    16    10    11   ar
    17    10    26    1
    18    11    12   ar
    19    11    14    1
    20    12    13   ar
    21    12    17    1
    22    13    37    1
    23    14    15    1
    24    14    25    2
    25    15    16    1
    26    15    38    1
    27    15    39    1
    28    16    17    1
    29    16    18    1
    30    16    40    1
    31    18    19   ar
    32    18    23   ar
    33    19    20   ar
    34    19    41    1
    35    20    21   ar
    36    20    42    1
    37    21    22   ar
    38    21    24    1
    39    22    23   ar
    40    22    43    1
    41    23    44    1
    42    24    45    1
    43    26    46    1
    44    27    47    1
    45    28    48    1
    46    29    49    1
    47    30    50    1
    48     1    31    1
    49     1    27    1
    50     2    32    1
    51     2    28    1
    52     4    34    1
    53     4    30    1
