@<TRIPOS>MOLECULE
*****
 50 53 0 0 0
SMALL
GASTEIGER

@<TRIPOS>ATOM
     1 C         -0.372868   -1.370506   1.659363 C.3        1 UNL1     0.1889
     2 C         -0.450375   -0.987993   0.156827 C.3        1 UNL1     0.1342
     3 C         -1.868846   -0.991501   -0.433422 C.3        1 UNL1     0.1174
     4 C         -2.759431   -2.081329   0.168451 C.3        1 UNL1     0.1456
     5 C         -2.66834   -2.136534   1.704361 C.3        1 UNL1     0.2326
     6 O         -1.314357   -2.336002   2.104123 O.3        1 UNL1     -0.3076
     7 O         -3.291421   -1.014853   2.356223 O.3        1 UNL1     -0.4605
     8 C         -3.853592   -1.268852   3.594357 C.ar        1 UNL1     0.1310
     9 C         -4.66731   -2.363494   3.905683 C.ar        1 UNL1     0.0226
     10 C         -5.176291   -2.542728   5.197471 C.ar        1 UNL1     0.1343
     11 C         -4.86408   -1.643534   6.216204 C.ar        1 UNL1     0.1007
     12 C         -4.086114   -0.524461   5.907614 C.ar        1 UNL1     0.1389
     13 C         -3.576633   -0.343053   4.608018 C.ar        1 UNL1     0.0229
     14 C         -5.30553   -1.829616   7.617863 C.2        1 UNL1     0.1740
     15 C         -4.696204   -0.893835   8.620152 C.3        1 UNL1     0.0520
     16 C         -4.621165   0.494443   7.99966 C.3        1 UNL1     0.1322
     17 O         -3.807523   0.479311   6.805999 O.3        1 UNL1     -0.4828
     18 C         -5.985124   1.167695   7.829156 C.ar        1 UNL1     -0.0067
     19 C         -6.311178   1.769355   6.59631 C.ar        1 UNL1     -0.0516
     20 C         -7.530606   2.434592   6.421909 C.ar        1 UNL1     -0.0198
     21 C         -8.427327   2.511309   7.472545 C.ar        1 UNL1     0.1169
     22 C         -8.149071   1.89997   8.688142 C.ar        1 UNL1     -0.0198
     23 C         -6.937639   1.218817   8.857016 C.ar        1 UNL1     -0.0516
     24 O         -9.588419   3.199899   7.277326 O.3        1 UNL1     -0.5068
     25 O         -6.056797   -2.732906   7.975845 O.2        1 UNL1     -0.2917
     26 O         -5.96473   -3.63056   5.435319 O.3        1 UNL1     -0.5058
     27 O         -0.323684   -0.248719   2.526519 O.3        1 UNL1     -0.3648
     28 O         0.329191   -1.935802   -0.59593 O.3        1 UNL1     -0.3841
     29 O         -2.454873   0.309337   -0.35264 O.3        1 UNL1     -0.3863
     30 O         -2.365614   -3.363803   -0.366205 O.3        1 UNL1     -0.3829
     31 H         0.592313   -1.867419   1.806278 H        1 UNL1     0.0937
     32 H         0.0   0.0   0.0 H        1 UNL1     0.0671
     33 H         -1.784514   -1.207318   -1.50768 H        1 UNL1     0.0649
     34 H         -3.801865   -1.917568   -0.126363 H        1 UNL1     0.0683
     35 H         -3.216859   -3.049135   1.969245 H        1 UNL1     0.1085
     36 H         -4.900623   -3.127454   3.172164 H        1 UNL1     0.0691
     37 H         -2.974373   0.53708   4.393209 H        1 UNL1     0.0691
     38 H         -3.697551   -1.27263   8.862503 H        1 UNL1     0.0385
     39 H         -5.298151   -0.906399   9.535183 H        1 UNL1     0.0385
     40 H         -4.067544   1.133073   8.701212 H        1 UNL1     0.0789
     41 H         -5.620397   1.730934   5.759055 H        1 UNL1     0.0623
     42 H         -7.765346   2.904777   5.470156 H        1 UNL1     0.0654
     43 H         -8.850662   1.941023   9.512761 H        1 UNL1     0.0654
     44 H         -6.757738   0.743823   9.816631 H        1 UNL1     0.0623
     45 H         -9.366858   4.122163   7.069825 H        1 UNL1     0.2921
     46 H         -5.585393   -4.152886   6.159675 H        1 UNL1     0.2922
     47 H         0.416114   0.327005   2.287559 H        1 UNL1     0.2126
     48 H         1.252179   -1.844272   -0.290239 H        1 UNL1     0.2101
     49 H         -2.008138   0.911393   -0.968879 H        1 UNL1     0.2100
     50 H         -2.565764   -3.364995   -1.32519 H        1 UNL1     0.2102
@<TRIPOS>BOND
     1     1     2    1
     2     1     6    1
     3     2     3    1
     4     3     4    1
     5     3    29    1
     6     3    33    1
     7     4     5    1
     8     5     6    1
     9     5     7    1
    10     5    35    1
    11     7     8    1
    12     8     9   ar
    13     8    13   ar
    14     9    10   ar
    15     9    36    1
    16    10    11   ar
    17    10    26    1
    18    11    12   ar
    19    11    14    1
    20    12    13   ar
    21    12    17    1
    22    13    37    1
    23    14    15    1
    24    14    25    2
    25    15    16    1
    26    15    38    1
    27    15    39    1
    28    16    17    1
    29    16    18    1
    30    16    40    1
    31    18    19   ar
    32    18    23   ar
    33    19    20   ar
    34    19    41    1
    35    20    21   ar
    36    20    42    1
    37    21    22   ar
    38    21    24    1
    39    22    23   ar
    40    22    43    1
    41    23    44    1
    42    24    45    1
    43    26    46    1
    44    27    47    1
    45    28    48    1
    46    29    49    1
    47    30    50    1
    48     1    31    1
    49     1    27    1
    50     2    32    1
    51     2    28    1
    52     4    34    1
    53     4    30    1
