@<TRIPOS>MOLECULE
*****
 50 53 0 0 0
SMALL
GASTEIGER

@<TRIPOS>ATOM
     1 C         1.371031   1.350495   1.033075 C.3        1 UNL1     0.1889
     2 C         0.053945   0.532228   0.957802 C.3        1 UNL1     0.1342
     3 C         -1.226849   1.360125   1.143859 C.3        1 UNL1     0.1174
     4 C         -1.049323   2.513542   2.13443 C.3        1 UNL1     0.1456
     5 C         0.24068   3.315112   1.881958 C.3        1 UNL1     0.2326
     6 O         1.370557   2.447118   1.93519 O.3        1 UNL1     -0.3076
     7 O         0.195247   4.112016   0.684377 O.3        1 UNL1     -0.4605
     8 C         0.974949   5.254639   0.686607 C.ar        1 UNL1     0.1310
     9 C         2.323003   5.315066   1.055932 C.ar        1 UNL1     0.0226
     10 C         3.033188   6.520573   1.008057 C.ar        1 UNL1     0.1343
     11 C         2.418321   7.691402   0.566539 C.ar        1 UNL1     0.1007
     12 C         1.061572   7.651961   0.234183 C.ar        1 UNL1     0.1389
     13 C         0.347008   6.440245   0.284927 C.ar        1 UNL1     0.0229
     14 C         3.143215   8.974424   0.41642 C.2        1 UNL1     0.1740
     15 C         2.388502   10.069045   -0.279109 C.3        1 UNL1     0.0520
     16 C         0.943225   10.036456   0.198458 C.3        1 UNL1     0.1322
     17 O         0.330016   8.76511   -0.109316 O.3        1 UNL1     -0.4828
     18 C         0.762842   10.493368   1.648085 C.ar        1 UNL1     -0.0067
     19 C         1.077632   9.6064   2.698042 C.ar        1 UNL1     -0.0516
     20 C         0.879564   9.975502   4.033892 C.ar        1 UNL1     -0.0198
     21 C         0.3616   11.223178   4.331964 C.ar        1 UNL1     0.1169
     22 C         0.073303   12.131005   3.321235 C.ar        1 UNL1     -0.0198
     23 C         0.288601   11.769007   1.986072 C.ar        1 UNL1     -0.0516
     24 O         0.146867   11.533334   5.642725 O.3        1 UNL1     -0.5068
     25 O         4.312444   9.134227   0.756791 O.2        1 UNL1     -0.2917
     26 O         4.345134   6.512057   1.382638 O.3        1 UNL1     -0.5058
     27 O         1.881394   1.718551   -0.238479 O.3        1 UNL1     -0.3648
     28 O         0.075382   -0.463263   1.997632 O.3        1 UNL1     -0.3841
     29 O         -1.741258   1.788971   -0.118523 O.3        1 UNL1     -0.3863
     30 O         -1.010857   1.983168   3.477157 O.3        1 UNL1     -0.3829
     31 H         2.132776   0.679924   1.445578 H        1 UNL1     0.0937
     32 H         -0.0   0.0   0.0 H        1 UNL1     0.0671
     33 H         -1.996794   0.697181   1.562677 H        1 UNL1     0.0649
     34 H         -1.91077   3.18841   2.080917 H        1 UNL1     0.0683
     35 H         0.310804   3.983504   2.749261 H        1 UNL1     0.1085
     36 H         2.872679   4.429175   1.354551 H        1 UNL1     0.0691
     37 H         -0.708653   6.436395   0.022138 H        1 UNL1     0.0691
     38 H         2.45276   9.882775   -1.356468 H        1 UNL1     0.0385
     39 H         2.87264   11.028736   -0.06844 H        1 UNL1     0.0385
     40 H         0.38576   10.763889   -0.407011 H        1 UNL1     0.0789
     41 H         1.476876   8.617994   2.489935 H        1 UNL1     0.0623
     42 H         1.115009   9.278239   4.834143 H        1 UNL1     0.0654
     43 H         -0.318578   13.116222   3.544142 H        1 UNL1     0.0654
     44 H         0.062264   12.507014   1.222552 H        1 UNL1     0.0623
     45 H         -0.425027   10.850756   6.029688 H        1 UNL1     0.2921
     46 H         4.547909   7.326556   1.869346 H        1 UNL1     0.2922
     47 H         1.496338   2.559067   -0.523304 H        1 UNL1     0.2126
     48 H         -0.813415   -0.464181   2.402318 H        1 UNL1     0.2101
     49 H         -2.708969   1.716078   -0.12253 H        1 UNL1     0.2100
     50 H         -1.344033   1.0624   3.447291 H        1 UNL1     0.2102
@<TRIPOS>BOND
     1     1     2    1
     2     1     6    1
     3     2     3    1
     4     3     4    1
     5     3    29    1
     6     3    33    1
     7     4     5    1
     8     5     6    1
     9     5     7    1
    10     5    35    1
    11     7     8    1
    12     8     9   ar
    13     8    13   ar
    14     9    10   ar
    15     9    36    1
    16    10    11   ar
    17    10    26    1
    18    11    12   ar
    19    11    14    1
    20    12    13   ar
    21    12    17    1
    22    13    37    1
    23    14    15    1
    24    14    25    2
    25    15    16    1
    26    15    38    1
    27    15    39    1
    28    16    17    1
    29    16    18    1
    30    16    40    1
    31    18    19   ar
    32    18    23   ar
    33    19    20   ar
    34    19    41    1
    35    20    21   ar
    36    20    42    1
    37    21    22   ar
    38    21    24    1
    39    22    23   ar
    40    22    43    1
    41    23    44    1
    42    24    45    1
    43    26    46    1
    44    27    47    1
    45    28    48    1
    46    29    49    1
    47    30    50    1
    48     1    31    1
    49     1    27    1
    50     2    32    1
    51     2    28    1
    52     4    34    1
    53     4    30    1
