@<TRIPOS>MOLECULE
*****
 50 53 0 0 0
SMALL
GASTEIGER

@<TRIPOS>ATOM
     1 C         -0.118699   1.343683   1.717915 C.3        1 UNL1     0.1889
     2 C         0.577775   0.218145   0.906725 C.3        1 UNL1     0.1342
     3 C         0.802139   -1.087832   1.684252 C.3        1 UNL1     0.1174
     4 C         1.110545   -0.851562   3.164853 C.3        1 UNL1     0.1456
     5 C         0.150476   0.162467   3.813217 C.3        1 UNL1     0.2326
     6 O         0.194826   1.397308   3.10183 O.3        1 UNL1     -0.3076
     7 O         -1.185826   -0.343134   3.986382 O.3        1 UNL1     -0.4605
     8 C         -1.877601   0.135698   5.084423 C.ar        1 UNL1     0.1310
     9 C         -1.498247   -0.037588   6.41985 C.ar        1 UNL1     0.0226
     10 C         -2.258771   0.501892   7.464104 C.ar        1 UNL1     0.1343
     11 C         -3.405346   1.248764   7.196917 C.ar        1 UNL1     0.1007
     12 C         -3.816744   1.393865   5.869333 C.ar        1 UNL1     0.1389
     13 C         -3.053314   0.849082   4.819658 C.ar        1 UNL1     0.0229
     14 C         -4.199615   1.911911   8.256883 C.2        1 UNL1     0.1740
     15 C         -5.264656   2.853669   7.776958 C.3        1 UNL1     0.0520
     16 C         -5.941176   2.23642   6.560701 C.3        1 UNL1     0.1322
     17 O         -4.986197   2.016497   5.49923 O.3        1 UNL1     -0.4828
     18 C         -6.813642   1.022864   6.890565 C.ar        1 UNL1     -0.0067
     19 C         -6.199363   -0.206998   7.204114 C.ar        1 UNL1     -0.0516
     20 C         -6.967731   -1.348022   7.464183 C.ar        1 UNL1     -0.0198
     21 C         -8.347974   -1.274133   7.406754 C.ar        1 UNL1     0.1169
     22 C         -8.982664   -0.069407   7.133545 C.ar        1 UNL1     -0.0198
     23 C         -8.214915   1.07605   6.891582 C.ar        1 UNL1     -0.0516
     24 O         -9.062281   -2.41472   7.628625 O.3        1 UNL1     -0.5068
     25 O         -3.970137   1.779976   9.456224 O.2        1 UNL1     -0.2917
     26 O         -1.834832   0.295909   8.744507 O.3        1 UNL1     -0.5058
     27 O         -1.517724   1.41871   1.49456 O.3        1 UNL1     -0.3648
     28 O         1.869778   0.692753   0.484611 O.3        1 UNL1     -0.3841
     29 O         -0.286708   -1.991191   1.483038 O.3        1 UNL1     -0.3863
     30 O         2.462109   -0.359485   3.294571 O.3        1 UNL1     -0.3829
     31 H         0.267443   2.293002   1.330917 H        1 UNL1     0.0937
     32 H         0.0   -0.0   0.0 H        1 UNL1     0.0671
     33 H         1.680133   -1.588434   1.252692 H        1 UNL1     0.0649
     34 H         1.060288   -1.798807   3.713125 H        1 UNL1     0.0683
     35 H         0.589484   0.347801   4.801549 H        1 UNL1     0.1085
     36 H         -0.587425   -0.560257   6.690665 H        1 UNL1     0.0691
     37 H         -3.395752   0.975143   3.794798 H        1 UNL1     0.0691
     38 H         -4.778117   3.800685   7.520116 H        1 UNL1     0.0385
     39 H         -5.971118   3.042233   8.592515 H        1 UNL1     0.0385
     40 H         -6.631494   2.989556   6.157258 H        1 UNL1     0.0789
     41 H         -5.117501   -0.293189   7.246499 H        1 UNL1     0.0623
     42 H         -6.482035   -2.293378   7.69312 H        1 UNL1     0.0654
     43 H         -10.063213   0.003097   7.100876 H        1 UNL1     0.0654
     44 H         -8.744165   2.002771   6.691765 H        1 UNL1     0.0623
     45 H         -9.445774   -2.705354   6.785309 H        1 UNL1     0.2921
     46 H         -1.898886   1.125324   9.243886 H        1 UNL1     0.2922
     47 H         -1.701231   1.514953   0.549614 H        1 UNL1     0.2126
     48 H         2.485546   0.52166   1.223049 H        1 UNL1     0.2101
     49 H         -0.905039   -1.934063   2.228825 H        1 UNL1     0.2100
     50 H         3.072312   -1.087395   3.054754 H        1 UNL1     0.2102
@<TRIPOS>BOND
     1     1     2    1
     2     1     6    1
     3     2     3    1
     4     3     4    1
     5     3    29    1
     6     3    33    1
     7     4     5    1
     8     5     6    1
     9     5     7    1
    10     5    35    1
    11     7     8    1
    12     8     9   ar
    13     8    13   ar
    14     9    10   ar
    15     9    36    1
    16    10    11   ar
    17    10    26    1
    18    11    12   ar
    19    11    14    1
    20    12    13   ar
    21    12    17    1
    22    13    37    1
    23    14    15    1
    24    14    25    2
    25    15    16    1
    26    15    38    1
    27    15    39    1
    28    16    17    1
    29    16    18    1
    30    16    40    1
    31    18    19   ar
    32    18    23   ar
    33    19    20   ar
    34    19    41    1
    35    20    21   ar
    36    20    42    1
    37    21    22   ar
    38    21    24    1
    39    22    23   ar
    40    22    43    1
    41    23    44    1
    42    24    45    1
    43    26    46    1
    44    27    47    1
    45    28    48    1
    46    29    49    1
    47    30    50    1
    48     1    31    1
    49     1    27    1
    50     2    32    1
    51     2    28    1
    52     4    34    1
    53     4    30    1
