@<TRIPOS>MOLECULE
*****
 50 53 0 0 0
SMALL
GASTEIGER

@<TRIPOS>ATOM
     1 C         0.131162   1.603164   -1.477655 C.3        1 UNL1     0.1889
     2 C         -0.324396   1.042896   -0.103426 C.3        1 UNL1     0.1342
     3 C         -1.837005   1.124954   0.152982 C.3        1 UNL1     0.1174
     4 C         -2.476287   2.372734   -0.461414 C.3        1 UNL1     0.1456
     5 C         -2.024771   2.613092   -1.913559 C.3        1 UNL1     0.2326
     6 O         -0.603684   2.713856   -1.970361 O.3        1 UNL1     -0.3076
     7 O         -2.56206   1.657923   -2.846455 O.3        1 UNL1     -0.4605
     8 C         -2.723548   2.104341   -4.145747 C.ar        1 UNL1     0.1310
     9 C         -1.752261   2.771419   -4.900008 C.ar        1 UNL1     0.0226
     10 C         -2.006625   3.169589   -6.217832 C.ar        1 UNL1     0.1343
     11 C         -3.231416   2.888922   -6.821948 C.ar        1 UNL1     0.1007
     12 C         -4.223646   2.259773   -6.065354 C.ar        1 UNL1     0.1389
     13 C         -3.968558   1.861871   -4.739445 C.ar        1 UNL1     0.0229
     14 C         -3.523848   3.211959   -8.237676 C.2        1 UNL1     0.1740
     15 C         -4.799932   2.641704   -8.78354 C.3        1 UNL1     0.0520
     16 C         -5.876881   2.760005   -7.713893 C.3        1 UNL1     0.1322
     17 O         -5.500253   2.031935   -6.524298 O.3        1 UNL1     -0.4828
     18 C         -6.336809   4.197425   -7.458911 C.ar        1 UNL1     -0.0067
     19 C         -5.534758   5.052516   -6.675491 C.ar        1 UNL1     -0.0516
     20 C         -5.948526   6.357729   -6.383641 C.ar        1 UNL1     -0.0198
     21 C         -7.162893   6.816242   -6.862084 C.ar        1 UNL1     0.1169
     22 C         -7.959294   6.009114   -7.664037 C.ar        1 UNL1     -0.0198
     23 C         -7.537198   4.710102   -7.971379 C.ar        1 UNL1     -0.0516
     24 O         -7.550142   8.080119   -6.52585 O.3        1 UNL1     -0.5068
     25 O         -2.752201   3.834745   -8.962373 O.2        1 UNL1     -0.2917
     26 O         -1.017432   3.817292   -6.898686 O.3        1 UNL1     -0.5058
     27 O         0.295809   0.602422   -2.46972 O.3        1 UNL1     -0.3648
     28 O         0.327704   1.796811   0.935364 O.3        1 UNL1     -0.3841
     29 O         -2.485551   -0.083671   -0.247949 O.3        1 UNL1     -0.3863
     30 O         -2.12154   3.526237   0.331853 O.3        1 UNL1     -0.3829
     31 H         1.139013   2.007111   -1.332247 H        1 UNL1     0.0937
     32 H         0.0   -0.0   0.0 H        1 UNL1     0.0671
     33 H         -1.98987   1.191623   1.239218 H        1 UNL1     0.0649
     34 H         -3.568132   2.286762   -0.431696 H        1 UNL1     0.0683
     35 H         -2.4248   3.606082   -2.15403 H        1 UNL1     0.1085
     36 H         -0.761241   2.969287   -4.506498 H        1 UNL1     0.0691
     37 H         -4.758133   1.374692   -4.17136 H        1 UNL1     0.0691
     38 H         -4.611366   1.593741   -9.039943 H        1 UNL1     0.0385
     39 H         -5.067842   3.175606   -9.701664 H        1 UNL1     0.0385
     40 H         -6.764718   2.232998   -8.088763 H        1 UNL1     0.0789
     41 H         -4.581568   4.713283   -6.280522 H        1 UNL1     0.0623
     42 H         -5.326668   7.003455   -5.768547 H        1 UNL1     0.0654
     43 H         -8.905081   6.363249   -8.056445 H        1 UNL1     0.0654
     44 H         -8.179527   4.110737   -8.60936 H        1 UNL1     0.0623
     45 H         -7.540175   8.156668   -5.557988 H        1 UNL1     0.2921
     46 H         -1.406935   4.514667   -7.449475 H        1 UNL1     0.2922
     47 H         -0.541466   0.444011   -2.92769 H        1 UNL1     0.2126
     48 H         -0.348972   1.979008   1.615545 H        1 UNL1     0.2101
     49 H         -3.167762   -0.322594   0.399583 H        1 UNL1     0.2100
     50 H         -1.768271   3.206444   1.187801 H        1 UNL1     0.2102
@<TRIPOS>BOND
     1     1     2    1
     2     1     6    1
     3     2     3    1
     4     3     4    1
     5     3    29    1
     6     3    33    1
     7     4     5    1
     8     5     6    1
     9     5     7    1
    10     5    35    1
    11     7     8    1
    12     8     9   ar
    13     8    13   ar
    14     9    10   ar
    15     9    36    1
    16    10    11   ar
    17    10    26    1
    18    11    12   ar
    19    11    14    1
    20    12    13   ar
    21    12    17    1
    22    13    37    1
    23    14    15    1
    24    14    25    2
    25    15    16    1
    26    15    38    1
    27    15    39    1
    28    16    17    1
    29    16    18    1
    30    16    40    1
    31    18    19   ar
    32    18    23   ar
    33    19    20   ar
    34    19    41    1
    35    20    21   ar
    36    20    42    1
    37    21    22   ar
    38    21    24    1
    39    22    23   ar
    40    22    43    1
    41    23    44    1
    42    24    45    1
    43    26    46    1
    44    27    47    1
    45    28    48    1
    46    29    49    1
    47    30    50    1
    48     1    31    1
    49     1    27    1
    50     2    32    1
    51     2    28    1
    52     4    34    1
    53     4    30    1
