@<TRIPOS>MOLECULE
*****
 50 53 0 0 0
SMALL
GASTEIGER

@<TRIPOS>ATOM
     1 C         -0.389285   -1.380717   1.647083 C.3        1 UNL1     0.1889
     2 C         -0.49167   -0.968575   0.1539 C.3        1 UNL1     0.1342
     3 C         -1.925041   -0.895659   -0.394366 C.3        1 UNL1     0.1174
     4 C         -2.848311   -1.953304   0.215614 C.3        1 UNL1     0.1456
     5 C         -2.716015   -2.039764   1.747079 C.3        1 UNL1     0.2326
     6 O         -1.362029   -2.309044   2.10356 O.3        1 UNL1     -0.3076
     7 O         -3.266751   -0.901972   2.435149 O.3        1 UNL1     -0.4605
     8 C         -4.605097   -0.641668   2.201479 C.ar        1 UNL1     0.1310
     9 C         -5.223168   -0.639838   0.946375 C.ar        1 UNL1     0.0226
     10 C         -6.592537   -0.380408   0.814362 C.ar        1 UNL1     0.1343
     11 C         -7.382515   -0.139756   1.937689 C.ar        1 UNL1     0.1007
     12 C         -6.768912   -0.098428   3.192507 C.ar        1 UNL1     0.1389
     13 C         -5.391507   -0.356703   3.324721 C.ar        1 UNL1     0.0229
     14 C         -8.848775   0.057175   1.863856 C.2        1 UNL1     0.1740
     15 C         -9.567937   0.079979   3.180608 C.3        1 UNL1     0.0520
     16 C         -8.721668   0.858627   4.178352 C.3        1 UNL1     0.1322
     17 O         -7.430012   0.23523   4.351768 O.3        1 UNL1     -0.4828
     18 C         -8.667834   2.362591   3.899215 C.ar        1 UNL1     -0.0067
     19 C         -9.30622   3.254673   4.785142 C.ar        1 UNL1     -0.0516
     20 C         -9.316604   4.631929   4.534105 C.ar        1 UNL1     -0.0198
     21 C         -8.699886   5.127717   3.399345 C.ar        1 UNL1     0.1169
     22 C         -8.034227   4.277882   2.525551 C.ar        1 UNL1     -0.0198
     23 C         -8.007854   2.902553   2.785993 C.ar        1 UNL1     -0.0516
     24 O         -8.763111   6.470487   3.168317 O.3        1 UNL1     -0.5068
     25 O         -9.470179   0.119518   0.806285 O.2        1 UNL1     -0.2917
     26 O         -7.133882   -0.392361   -0.43799 O.3        1 UNL1     -0.5058
     27 O         -0.262611   -0.277899   2.530561 O.3        1 UNL1     -0.3648
     28 O         0.220604   -1.938214   -0.636778 O.3        1 UNL1     -0.3841
     29 O         -2.446691   0.429415   -0.275228 O.3        1 UNL1     -0.3863
     30 O         -2.530701   -3.243089   -0.351192 O.3        1 UNL1     -0.3829
     31 H         0.555266   -1.92452   1.757449 H        1 UNL1     0.0937
     32 H         0.0   0.0   0.0 H        1 UNL1     0.0671
     33 H         -1.88172   -1.09619   -1.47401 H        1 UNL1     0.0649
     34 H         -3.889897   -1.736037   -0.045719 H        1 UNL1     0.0683
     35 H         -3.299043   -2.930379   2.013089 H        1 UNL1     0.1085
     36 H         -4.67511   -0.874815   0.040539 H        1 UNL1     0.0691
     37 H         -4.937615   -0.317445   4.312614 H        1 UNL1     0.0691
     38 H         -9.702656   -0.958203   3.502409 H        1 UNL1     0.0385
     39 H         -10.558529   0.526053   3.040884 H        1 UNL1     0.0385
     40 H         -9.206905   0.762281   5.159057 H        1 UNL1     0.0789
     41 H         -9.805279   2.889501   5.678025 H        1 UNL1     0.0623
     42 H         -9.822471   5.308351   5.218622 H        1 UNL1     0.0654
     43 H         -7.535113   4.657169   1.641844 H        1 UNL1     0.0654
     44 H         -7.469509   2.269084   2.087605 H        1 UNL1     0.0623
     45 H         -7.923827   6.869845   3.449088 H        1 UNL1     0.2921
     46 H         -8.016521   -0.793955   -0.405087 H        1 UNL1     0.2922
     47 H         0.447301   0.308677   2.234227 H        1 UNL1     0.2126
     48 H         1.171701   -1.787126   -0.474545 H        1 UNL1     0.2101
     49 H         -3.002342   0.495281   0.517683 H        1 UNL1     0.2100
     50 H         -2.779068   -3.225474   -1.298671 H        1 UNL1     0.2102
@<TRIPOS>BOND
     1     1     2    1
     2     1     6    1
     3     2     3    1
     4     3     4    1
     5     3    29    1
     6     3    33    1
     7     4     5    1
     8     5     6    1
     9     5     7    1
    10     5    35    1
    11     7     8    1
    12     8     9   ar
    13     8    13   ar
    14     9    10   ar
    15     9    36    1
    16    10    11   ar
    17    10    26    1
    18    11    12   ar
    19    11    14    1
    20    12    13   ar
    21    12    17    1
    22    13    37    1
    23    14    15    1
    24    14    25    2
    25    15    16    1
    26    15    38    1
    27    15    39    1
    28    16    17    1
    29    16    18    1
    30    16    40    1
    31    18    19   ar
    32    18    23   ar
    33    19    20   ar
    34    19    41    1
    35    20    21   ar
    36    20    42    1
    37    21    22   ar
    38    21    24    1
    39    22    23   ar
    40    22    43    1
    41    23    44    1
    42    24    45    1
    43    26    46    1
    44    27    47    1
    45    28    48    1
    46    29    49    1
    47    30    50    1
    48     1    31    1
    49     1    27    1
    50     2    32    1
    51     2    28    1
    52     4    34    1
    53     4    30    1
