@<TRIPOS>MOLECULE
*****
 50 53 0 0 0
SMALL
GASTEIGER

@<TRIPOS>ATOM
     1 C         -0.727729   -1.638367   1.247786 C.3        1 UNL1     0.1889
     2 C         -0.740761   -0.806761   -0.063016 C.3        1 UNL1     0.1342
     3 C         -2.106816   -0.205422   -0.427365 C.3        1 UNL1     0.1174
     4 C         -3.277374   -1.110134   -0.034419 C.3        1 UNL1     0.1456
     5 C         -3.143344   -1.660348   1.397245 C.3        1 UNL1     0.2326
     6 O         -1.912566   -2.367173   1.533087 O.3        1 UNL1     -0.3076
     7 O         -3.337957   -0.662092   2.415543 O.3        1 UNL1     -0.4605
     8 C         -3.135784   0.649502   2.025189 C.ar        1 UNL1     0.1310
     9 C         -3.896199   1.746275   2.444901 C.ar        1 UNL1     0.0226
     10 C         -3.601133   3.042267   2.005306 C.ar        1 UNL1     0.1343
     11 C         -2.522656   3.276158   1.153236 C.ar        1 UNL1     0.1007
     12 C         -1.781235   2.183959   0.694782 C.ar        1 UNL1     0.1389
     13 C         -2.079758   0.880634   1.134849 C.ar        1 UNL1     0.0229
     14 C         -2.114796   4.634103   0.724529 C.2        1 UNL1     0.1740
     15 C         -0.806587   4.71895   -0.005496 C.3        1 UNL1     0.0520
     16 C         -0.707699   3.533979   -0.956298 C.3        1 UNL1     0.1322
     17 O         -0.767586   2.28692   -0.229437 O.3        1 UNL1     -0.4828
     18 C         -1.663151   3.61957   -2.148988 C.ar        1 UNL1     -0.0067
     19 C         -3.04676   3.764229   -1.918958 C.ar        1 UNL1     -0.0516
     20 C         -3.952633   3.798054   -2.985828 C.ar        1 UNL1     -0.0198
     21 C         -3.489222   3.681064   -4.284054 C.ar        1 UNL1     0.1169
     22 C         -2.129416   3.571088   -4.544191 C.ar        1 UNL1     -0.0198
     23 C         -1.221679   3.555786   -3.478435 C.ar        1 UNL1     -0.0516
     24 O         -4.404449   3.680134   -5.295369 O.3        1 UNL1     -0.5068
     25 O         -2.745965   5.649718   1.004954 O.2        1 UNL1     -0.2917
     26 O         -4.382123   4.068425   2.450994 O.3        1 UNL1     -0.5058
     27 O         -0.278195   -0.906657   2.377081 O.3        1 UNL1     -0.3648
     28 O         -0.346008   -1.66347   -1.15064 O.3        1 UNL1     -0.3841
     29 O         -2.232557   1.119604   0.092854 O.3        1 UNL1     -0.3863
     30 O         -3.346667   -2.221463   -0.954113 O.3        1 UNL1     -0.3829
     31 H         0.028016   -2.420179   1.114753 H        1 UNL1     0.0937
     32 H         0.0   0.0   0.0 H        1 UNL1     0.0671
     33 H         -2.143725   -0.094573   -1.5201 H        1 UNL1     0.0649
     34 H         -4.221072   -0.560736   -0.123849 H        1 UNL1     0.0683
     35 H         -3.947558   -2.403042   1.471566 H        1 UNL1     0.1085
     36 H         -4.712487   1.637636   3.150587 H        1 UNL1     0.0691
     37 H         -1.488098   0.047192   0.762283 H        1 UNL1     0.0691
     38 H         -0.007381   4.69259   0.742903 H        1 UNL1     0.0385
     39 H         -0.750806   5.67792   -0.531845 H        1 UNL1     0.0385
     40 H         0.301169   3.550572   -1.390383 H        1 UNL1     0.0789
     41 H         -3.43649   3.848816   -0.908707 H        1 UNL1     0.0623
     42 H         -5.01826   3.89805   -2.794909 H        1 UNL1     0.0654
     43 H         -1.75441   3.493958   -5.557765 H        1 UNL1     0.0654
     44 H         -0.165656   3.47924   -3.718853 H        1 UNL1     0.0623
     45 H         -3.988364   3.298365   -6.085206 H        1 UNL1     0.2921
     46 H         -4.264302   4.839104   1.873426 H        1 UNL1     0.2922
     47 H         -1.010898   -0.752915   2.989755 H        1 UNL1     0.2126
     48 H         -0.062565   -2.508801   -0.752133 H        1 UNL1     0.2101
     49 H         -1.486739   1.314883   0.682274 H        1 UNL1     0.2100
     50 H         -2.463505   -2.644431   -0.983006 H        1 UNL1     0.2102
@<TRIPOS>BOND
     1     1     2    1
     2     1     6    1
     3     2     3    1
     4     3     4    1
     5     3    29    1
     6     3    33    1
     7     4     5    1
     8     5     6    1
     9     5     7    1
    10     5    35    1
    11     7     8    1
    12     8     9   ar
    13     8    13   ar
    14     9    10   ar
    15     9    36    1
    16    10    11   ar
    17    10    26    1
    18    11    12   ar
    19    11    14    1
    20    12    13   ar
    21    12    17    1
    22    13    37    1
    23    14    15    1
    24    14    25    2
    25    15    16    1
    26    15    38    1
    27    15    39    1
    28    16    17    1
    29    16    18    1
    30    16    40    1
    31    18    19   ar
    32    18    23   ar
    33    19    20   ar
    34    19    41    1
    35    20    21   ar
    36    20    42    1
    37    21    22   ar
    38    21    24    1
    39    22    23   ar
    40    22    43    1
    41    23    44    1
    42    24    45    1
    43    26    46    1
    44    27    47    1
    45    28    48    1
    46    29    49    1
    47    30    50    1
    48     1    31    1
    49     1    27    1
    50     2    32    1
    51     2    28    1
    52     4    34    1
    53     4    30    1
