@<TRIPOS>MOLECULE
*****
 50 53 0 0 0
SMALL
GASTEIGER

@<TRIPOS>ATOM
     1 C         1.322484   -0.276174   1.716266 C.3        1 UNL1     0.1889
     2 C         0.663532   -0.775504   0.402344 C.3        1 UNL1     0.1342
     3 C         -0.124005   -2.087662   0.538334 C.3        1 UNL1     0.1174
     4 C         0.504464   -3.055551   1.543985 C.3        1 UNL1     0.1456
     5 C         0.89576   -2.364482   2.862953 C.3        1 UNL1     0.2326
     6 O         1.789369   -1.28512   2.599692 O.3        1 UNL1     -0.3076
     7 O         -0.23496   -1.979951   3.666027 O.3        1 UNL1     -0.4605
     8 C         0.055001   -1.298577   4.834437 C.ar        1 UNL1     0.1310
     9 C         1.334913   -0.925475   5.258607 C.ar        1 UNL1     0.0226
     10 C         1.524605   -0.220276   6.453016 C.ar        1 UNL1     0.1343
     11 C         0.435745   0.150076   7.241092 C.ar        1 UNL1     0.1007
     12 C         -0.84363   -0.252495   6.848765 C.ar        1 UNL1     0.1389
     13 C         -1.033858   -0.963858   5.649096 C.ar        1 UNL1     0.0229
     14 C         0.571277   0.967685   8.468814 C.2        1 UNL1     0.1740
     15 C         -0.714133   1.460044   9.066185 C.3        1 UNL1     0.0520
     16 C         -1.74531   0.343431   8.977836 C.3        1 UNL1     0.1322
     17 O         -1.973656   -0.036067   7.602733 O.3        1 UNL1     -0.4828
     18 C         -1.466423   -0.828921   9.921519 C.ar        1 UNL1     -0.0067
     19 C         -0.423609   -1.728504   9.619025 C.ar        1 UNL1     -0.0516
     20 C         -0.172467   -2.837788   10.435346 C.ar        1 UNL1     -0.0198
     21 C         -0.95997   -3.062094   11.550404 C.ar        1 UNL1     0.1169
     22 C         -1.972806   -2.175712   11.892935 C.ar        1 UNL1     -0.0198
     23 C         -2.212294   -1.056246   11.087021 C.ar        1 UNL1     -0.0516
     24 O         -0.709975   -4.173468   12.300572 O.3        1 UNL1     -0.5068
     25 O         1.654061   1.302789   8.941857 O.2        1 UNL1     -0.2917
     26 O         2.798532   0.112625   6.810608 O.3        1 UNL1     -0.5058
     27 O         0.553727   0.702116   2.397989 O.3        1 UNL1     -0.3648
     28 O         1.699885   -0.996922   -0.572157 O.3        1 UNL1     -0.3841
     29 O         -1.502485   -1.825929   0.8093 O.3        1 UNL1     -0.3863
     30 O         1.686896   -3.643982   0.959782 O.3        1 UNL1     -0.3829
     31 H         2.236628   0.253249   1.426213 H        1 UNL1     0.0937
     32 H         -0.0   0.0   0.0 H        1 UNL1     0.0671
     33 H         -0.109076   -2.590529   -0.438714 H        1 UNL1     0.0649
     34 H         -0.189727   -3.875845   1.757568 H        1 UNL1     0.0683
     35 H         1.469092   -3.128951   3.402171 H        1 UNL1     0.1085
     36 H         2.216624   -1.134691   4.662842 H        1 UNL1     0.0691
     37 H         -2.039851   -1.266585   5.36656 H        1 UNL1     0.0691
     38 H         -1.031558   2.337114   8.49215 H        1 UNL1     0.0385
     39 H         -0.532336   1.774954   10.099413 H        1 UNL1     0.0385
     40 H         -2.704954   0.761996   9.310113 H        1 UNL1     0.0789
     41 H         0.202853   -1.579546   8.744377 H        1 UNL1     0.0623
     42 H         0.626951   -3.530762   10.18489 H        1 UNL1     0.0654
     43 H         -2.585801   -2.333628   12.772259 H        1 UNL1     0.0654
     44 H         -3.004803   -0.378938   11.390383 H        1 UNL1     0.0623
     45 H         -1.433012   -4.806389   12.161483 H        1 UNL1     0.2921
     46 H         2.933289   -0.086775   7.75055 H        1 UNL1     0.2922
     47 H         0.359284   1.444933   1.809538 H        1 UNL1     0.2126
     48 H         1.761451   -0.181   -1.105273 H        1 UNL1     0.2101
     49 H         -2.005907   -2.655377   0.789865 H        1 UNL1     0.2100
     50 H         2.468293   -3.194143   1.342895 H        1 UNL1     0.2102
@<TRIPOS>BOND
     1     1     2    1
     2     1     6    1
     3     2     3    1
     4     3     4    1
     5     3    29    1
     6     3    33    1
     7     4     5    1
     8     5     6    1
     9     5     7    1
    10     5    35    1
    11     7     8    1
    12     8     9   ar
    13     8    13   ar
    14     9    10   ar
    15     9    36    1
    16    10    11   ar
    17    10    26    1
    18    11    12   ar
    19    11    14    1
    20    12    13   ar
    21    12    17    1
    22    13    37    1
    23    14    15    1
    24    14    25    2
    25    15    16    1
    26    15    38    1
    27    15    39    1
    28    16    17    1
    29    16    18    1
    30    16    40    1
    31    18    19   ar
    32    18    23   ar
    33    19    20   ar
    34    19    41    1
    35    20    21   ar
    36    20    42    1
    37    21    22   ar
    38    21    24    1
    39    22    23   ar
    40    22    43    1
    41    23    44    1
    42    24    45    1
    43    26    46    1
    44    27    47    1
    45    28    48    1
    46    29    49    1
    47    30    50    1
    48     1    31    1
    49     1    27    1
    50     2    32    1
    51     2    28    1
    52     4    34    1
    53     4    30    1
