@<TRIPOS>MOLECULE
*****
 50 53 0 0 0
SMALL
GASTEIGER

@<TRIPOS>ATOM
     1 C         -0.132992   -1.966915   -0.940406 C.3        1 UNL1     0.1889
     2 C         -0.6116   -0.501135   -0.760507 C.3        1 UNL1     0.1342
     3 C         -2.094864   -0.351926   -0.388849 C.3        1 UNL1     0.1174
     4 C         -2.980561   -1.415072   -1.043356 C.3        1 UNL1     0.1456
     5 C         -2.393121   -2.832508   -0.916258 C.3        1 UNL1     0.2326
     6 O         -1.085469   -2.869373   -1.483317 O.3        1 UNL1     -0.3076
     7 O         -2.443927   -3.35606   0.423381 O.3        1 UNL1     -0.4605
     8 C         -2.682937   -2.433588   1.426102 C.ar        1 UNL1     0.1310
     9 C         -2.978215   -1.080387   1.228725 C.ar        1 UNL1     0.0226
     10 C         -3.222295   -0.227437   2.311686 C.ar        1 UNL1     0.1343
     11 C         -3.200428   -0.712801   3.618508 C.ar        1 UNL1     0.1007
     12 C         -2.866383   -2.053054   3.830449 C.ar        1 UNL1     0.1389
     13 C         -2.618405   -2.909881   2.741511 C.ar        1 UNL1     0.0229
     14 C         -3.532997   0.12458   4.79424 C.2        1 UNL1     0.1740
     15 C         -3.677546   -0.610083   6.094595 C.3        1 UNL1     0.0520
     16 C         -2.589629   -1.672396   6.171305 C.3        1 UNL1     0.1322
     17 O         -2.710253   -2.60974   5.078644 O.3        1 UNL1     -0.4828
     18 C         -1.182924   -1.100918   6.364489 C.ar        1 UNL1     -0.0067
     19 C         -0.111958   -1.975594   6.640506 C.ar        1 UNL1     -0.0516
     20 C         1.177966   -1.481949   6.869363 C.ar        1 UNL1     -0.0198
     21 C         1.4079   -0.118283   6.832335 C.ar        1 UNL1     0.1169
     22 C         0.380466   0.765938   6.530057 C.ar        1 UNL1     -0.0198
     23 C         -0.905732   0.271274   6.282954 C.ar        1 UNL1     -0.0516
     24 O         2.669159   0.328098   7.09761 O.3        1 UNL1     -0.5068
     25 O         -3.760086   1.32954   4.723618 O.2        1 UNL1     -0.2917
     26 O         -3.503494   1.082027   2.051273 O.3        1 UNL1     -0.5058
     27 O         0.496974   -2.501524   0.212903 O.3        1 UNL1     -0.3648
     28 O         -0.408116   0.200625   -2.001004 O.3        1 UNL1     -0.3841
     29 O         -2.258633   -0.291827   1.029495 O.3        1 UNL1     -0.3863
     30 O         -3.139326   -1.102406   -2.444329 O.3        1 UNL1     -0.3829
     31 H         0.660068   -1.946555   -1.695866 H        1 UNL1     0.0937
     32 H         0.0   0.0   0.0 H        1 UNL1     0.0671
     33 H         -2.438137   0.622417   -0.763736 H        1 UNL1     0.0649
     34 H         -3.980285   -1.39641   -0.595468 H        1 UNL1     0.0683
     35 H         -3.037289   -3.444514   -1.559977 H        1 UNL1     0.1085
     36 H         -3.065161   -0.65477   0.235039 H        1 UNL1     0.0691
     37 H         -2.359323   -3.948912   2.933302 H        1 UNL1     0.0691
     38 H         -4.674294   -1.063727   6.109658 H        1 UNL1     0.0385
     39 H         -3.615405   0.106605   6.920595 H        1 UNL1     0.0385
     40 H         -2.785643   -2.272132   7.070424 H        1 UNL1     0.0789
     41 H         -0.268369   -3.049503   6.684152 H        1 UNL1     0.0623
     42 H         1.993067   -2.165781   7.092958 H        1 UNL1     0.0654
     43 H         0.552646   1.834633   6.483651 H        1 UNL1     0.0654
     44 H         -1.682322   0.989919   6.039431 H        1 UNL1     0.0623
     45 H         2.982442   -0.102462   7.909515 H        1 UNL1     0.2921
     46 H         -4.204842   1.387225   2.648247 H        1 UNL1     0.2922
     47 H         -0.12014   -2.510145   0.957856 H        1 UNL1     0.2126
     48 H         0.321124   -0.255158   -2.463825 H        1 UNL1     0.2101
     49 H         -2.659999   0.555566   1.279744 H        1 UNL1     0.2100
     50 H         -3.06793   -0.130704   -2.546365 H        1 UNL1     0.2102
@<TRIPOS>BOND
     1     1     2    1
     2     1     6    1
     3     2     3    1
     4     3     4    1
     5     3    29    1
     6     3    33    1
     7     4     5    1
     8     5     6    1
     9     5     7    1
    10     5    35    1
    11     7     8    1
    12     8     9   ar
    13     8    13   ar
    14     9    10   ar
    15     9    36    1
    16    10    11   ar
    17    10    26    1
    18    11    12   ar
    19    11    14    1
    20    12    13   ar
    21    12    17    1
    22    13    37    1
    23    14    15    1
    24    14    25    2
    25    15    16    1
    26    15    38    1
    27    15    39    1
    28    16    17    1
    29    16    18    1
    30    16    40    1
    31    18    19   ar
    32    18    23   ar
    33    19    20   ar
    34    19    41    1
    35    20    21   ar
    36    20    42    1
    37    21    22   ar
    38    21    24    1
    39    22    23   ar
    40    22    43    1
    41    23    44    1
    42    24    45    1
    43    26    46    1
    44    27    47    1
    45    28    48    1
    46    29    49    1
    47    30    50    1
    48     1    31    1
    49     1    27    1
    50     2    32    1
    51     2    28    1
    52     4    34    1
    53     4    30    1
