@<TRIPOS>MOLECULE
*****
 50 53 0 0 0
SMALL
GASTEIGER

@<TRIPOS>ATOM
     1 C         -0.331164   -1.328264   1.702014 C.3        1 UNL1     0.1889
     2 C         -0.461075   -0.976052   0.19569 C.3        1 UNL1     0.1342
     3 C         -1.901534   -0.965944   -0.338576 C.3        1 UNL1     0.1174
     4 C         -2.786666   -2.026365   0.321095 C.3        1 UNL1     0.1456
     5 C         -2.636141   -2.050943   1.85312 C.3        1 UNL1     0.2326
     6 O         -1.271164   -2.266768   2.204014 O.3        1 UNL1     -0.3076
     7 O         -3.213338   -0.904572   2.504272 O.3        1 UNL1     -0.4605
     8 C         -3.723461   -1.120347   3.771846 C.ar        1 UNL1     0.1310
     9 C         -4.538236   -2.194538   4.145418 C.ar        1 UNL1     0.0226
     10 C         -4.99176   -2.33513   5.462404 C.ar        1 UNL1     0.1343
     11 C         -4.621574   -1.416944   6.444106 C.ar        1 UNL1     0.1007
     12 C         -3.842038   -0.317712   6.074249 C.ar        1 UNL1     0.1389
     13 C         -3.38833   -0.17514   4.749389 C.ar        1 UNL1     0.0229
     14 C         -5.002851   -1.562818   7.86801 C.2        1 UNL1     0.1740
     15 C         -4.336079   -0.613056   8.819281 C.3        1 UNL1     0.0520
     16 C         -4.268694   0.758763   8.162373 C.3        1 UNL1     0.1322
     17 O         -3.509281   0.702674   6.934687 O.3        1 UNL1     -0.4828
     18 C         -5.629028   1.448842   8.035857 C.ar        1 UNL1     -0.0067
     19 C         -6.008324   2.010506   6.799377 C.ar        1 UNL1     -0.0516
     20 C         -7.224657   2.689931   6.661974 C.ar        1 UNL1     -0.0198
     21 C         -8.065229   2.820593   7.752933 C.ar        1 UNL1     0.1169
     22 C         -7.734694   2.249455   8.974975 C.ar        1 UNL1     -0.0198
     23 C         -6.526875   1.554063   9.107862 C.ar        1 UNL1     -0.0516
     24 O         -9.224012   3.521578   7.590933 O.3        1 UNL1     -0.5068
     25 O         -5.750405   -2.445595   8.28075 O.2        1 UNL1     -0.2917
     26 O         -5.784455   -3.404651   5.761309 O.3        1 UNL1     -0.5058
     27 O         -0.22824   -0.189592   2.542026 O.3        1 UNL1     -0.3648
     28 O         0.271531   -1.95361   -0.566133 O.3        1 UNL1     -0.3841
     29 O         -2.461065   0.346834   -0.263272 O.3        1 UNL1     -0.3863
     30 O         -2.43672   -3.326799   -0.200535 O.3        1 UNL1     -0.3829
     31 H         0.630207   -1.839599   1.821933 H        1 UNL1     0.0937
     32 H         0.0   0.0   0.0 H        1 UNL1     0.0671
     33 H         -1.863364   -1.205799   -1.410366 H        1 UNL1     0.0649
     34 H         -3.836875   -1.849743   0.063671 H        1 UNL1     0.0683
     35 H         -3.189693   -2.947562   2.158951 H        1 UNL1     0.1085
     36 H         -4.814965   -2.971994   3.441782 H        1 UNL1     0.0691
     37 H         -2.783583   0.690199   4.486782 H        1 UNL1     0.0691
     38 H         -3.333203   -1.001427   9.02649 H        1 UNL1     0.0385
     39 H         -4.896828   -0.594551   9.760024 H        1 UNL1     0.0385
     40 H         -3.67524   1.405214   8.823004 H        1 UNL1     0.0789
     41 H         -5.361903   1.92949   5.930339 H        1 UNL1     0.0623
     42 H         -7.500436   3.128941   5.706344 H        1 UNL1     0.0654
     43 H         -8.392515   2.332825   9.831848 H        1 UNL1     0.0654
     44 H         -6.305529   1.111486   10.074286 H        1 UNL1     0.0623
     45 H         -8.999374   4.429203   7.329262 H        1 UNL1     0.2921
     46 H         -5.379973   -3.916416   6.479574 H        1 UNL1     0.2922
     47 H         0.514187   0.365116   2.264608 H        1 UNL1     0.2126
     48 H         1.204022   -1.886727   -0.283784 H        1 UNL1     0.2101
     49 H         -2.022575   0.929684   -0.903434 H        1 UNL1     0.2100
     50 H         -2.669254   -3.342537   -1.152056 H        1 UNL1     0.2102
@<TRIPOS>BOND
     1     1     2    1
     2     1     6    1
     3     2     3    1
     4     3     4    1
     5     3    29    1
     6     3    33    1
     7     4     5    1
     8     5     6    1
     9     5     7    1
    10     5    35    1
    11     7     8    1
    12     8     9   ar
    13     8    13   ar
    14     9    10   ar
    15     9    36    1
    16    10    11   ar
    17    10    26    1
    18    11    12   ar
    19    11    14    1
    20    12    13   ar
    21    12    17    1
    22    13    37    1
    23    14    15    1
    24    14    25    2
    25    15    16    1
    26    15    38    1
    27    15    39    1
    28    16    17    1
    29    16    18    1
    30    16    40    1
    31    18    19   ar
    32    18    23   ar
    33    19    20   ar
    34    19    41    1
    35    20    21   ar
    36    20    42    1
    37    21    22   ar
    38    21    24    1
    39    22    23   ar
    40    22    43    1
    41    23    44    1
    42    24    45    1
    43    26    46    1
    44    27    47    1
    45    28    48    1
    46    29    49    1
    47    30    50    1
    48     1    31    1
    49     1    27    1
    50     2    32    1
    51     2    28    1
    52     4    34    1
    53     4    30    1
