@<TRIPOS>MOLECULE
*****
 50 53 0 0 0
SMALL
GASTEIGER

@<TRIPOS>ATOM
     1 C         0.059691   -1.785905   -1.256099 C.3        1 UNL1     0.1889
     2 C         -0.531249   -0.402947   -0.871189 C.3        1 UNL1     0.1342
     3 C         -2.039701   -0.408846   -0.579635 C.3        1 UNL1     0.1174
     4 C         -2.809817   -1.399271   -1.456617 C.3        1 UNL1     0.1456
     5 C         -2.130962   -2.77947   -1.524206 C.3        1 UNL1     0.2326
     6 O         -0.794559   -2.64099   -2.001405 O.3        1 UNL1     -0.3076
     7 O         -2.218633   -3.522223   -0.294591 O.3        1 UNL1     -0.4605
     8 C         -3.387069   -4.236631   -0.099896 C.ar        1 UNL1     0.1310
     9 C         -4.154346   -4.231971   1.06996 C.ar        1 UNL1     0.0226
     10 C         -5.335203   -4.978056   1.163958 C.ar        1 UNL1     0.1343
     11 C         -5.790405   -5.728884   0.080957 C.ar        1 UNL1     0.1007
     12 C         -5.011439   -5.773973   -1.078337 C.ar        1 UNL1     0.1389
     13 C         -3.822762   -5.025797   -1.171674 C.ar        1 UNL1     0.0229
     14 C         -7.073627   -6.468651   0.096466 C.2        1 UNL1     0.1740
     15 C         -7.512772   -7.034607   -1.222016 C.3        1 UNL1     0.0520
     16 C         -6.291462   -7.598424   -1.935087 C.3        1 UNL1     0.1322
     17 O         -5.308661   -6.564623   -2.164061 O.3        1 UNL1     -0.4828
     18 C         -5.735346   -8.871118   -1.291886 C.ar        1 UNL1     -0.0067
     19 C         -6.627779   -9.85691   -0.822854 C.ar        1 UNL1     -0.0516
     20 C         -6.154039   -11.010746   -0.187091 C.ar        1 UNL1     -0.0198
     21 C         -4.793583   -11.186684   -0.008117 C.ar        1 UNL1     0.1169
     22 C         -3.888268   -10.249601   -0.488867 C.ar        1 UNL1     -0.0198
     23 C         -4.360864   -9.104471   -1.141083 C.ar        1 UNL1     -0.0516
     24 O         -4.371253   -12.304764   0.649101 O.3        1 UNL1     -0.5068
     25 O         -7.790037   -6.558922   1.089991 O.2        1 UNL1     -0.2917
     26 O         -6.036787   -4.931342   2.333224 O.3        1 UNL1     -0.5058
     27 O         0.661141   -2.466806   -0.166412 O.3        1 UNL1     -0.3648
     28 O         -0.309705   0.507852   -1.963923 O.3        1 UNL1     -0.3841
     29 O         -2.285773   -0.597378   0.815369 O.3        1 UNL1     -0.3863
     30 O         -2.912453   -0.866523   -2.795024 O.3        1 UNL1     -0.3829
     31 H         0.889984   -1.59092   -1.943612 H        1 UNL1     0.0937
     32 H         0.0   0.0   0.0 H        1 UNL1     0.0671
     33 H         -2.430107   0.591773   -0.812152 H        1 UNL1     0.0649
     34 H         -3.831642   -1.516917   -1.079211 H        1 UNL1     0.0683
     35 H         -2.693237   -3.313068   -2.300736 H        1 UNL1     0.1085
     36 H         -3.883812   -3.624856   1.926898 H        1 UNL1     0.0691
     37 H         -3.233776   -5.078826   -2.084787 H        1 UNL1     0.0691
     38 H         -7.965316   -6.220213   -1.79777 H        1 UNL1     0.0385
     39 H         -8.279322   -7.797377   -1.047773 H        1 UNL1     0.0385
     40 H         -6.613928   -7.8984   -2.941342 H        1 UNL1     0.0789
     41 H         -7.700655   -9.737979   -0.943039 H        1 UNL1     0.0623
     42 H         -6.852838   -11.757981   0.180786 H        1 UNL1     0.0654
     43 H         -2.820125   -10.384641   -0.367439 H        1 UNL1     0.0654
     44 H         -3.624866   -8.398343   -1.513286 H        1 UNL1     0.0623
     45 H         -3.404431   -12.266332   0.729696 H        1 UNL1     0.2921
     46 H         -5.761709   -4.154101   2.844731 H        1 UNL1     0.2922
     47 H         1.27248   -3.142935   -0.49041 H        1 UNL1     0.2126
     48 H         -1.057502   1.135961   -1.960497 H        1 UNL1     0.2101
     49 H         -3.042682   -1.1919   0.939568 H        1 UNL1     0.2100
     50 H         -2.723701   -1.593357   -3.424149 H        1 UNL1     0.2102
@<TRIPOS>BOND
     1     1     2    1
     2     1     6    1
     3     2     3    1
     4     3     4    1
     5     3    29    1
     6     3    33    1
     7     4     5    1
     8     5     6    1
     9     5     7    1
    10     5    35    1
    11     7     8    1
    12     8     9   ar
    13     8    13   ar
    14     9    10   ar
    15     9    36    1
    16    10    11   ar
    17    10    26    1
    18    11    12   ar
    19    11    14    1
    20    12    13   ar
    21    12    17    1
    22    13    37    1
    23    14    15    1
    24    14    25    2
    25    15    16    1
    26    15    38    1
    27    15    39    1
    28    16    17    1
    29    16    18    1
    30    16    40    1
    31    18    19   ar
    32    18    23   ar
    33    19    20   ar
    34    19    41    1
    35    20    21   ar
    36    20    42    1
    37    21    22   ar
    38    21    24    1
    39    22    23   ar
    40    22    43    1
    41    23    44    1
    42    24    45    1
    43    26    46    1
    44    27    47    1
    45    28    48    1
    46    29    49    1
    47    30    50    1
    48     1    31    1
    49     1    27    1
    50     2    32    1
    51     2    28    1
    52     4    34    1
    53     4    30    1
