@<TRIPOS>MOLECULE
*****
 50 53 0 0 0
SMALL
GASTEIGER

@<TRIPOS>ATOM
     1 C         -0.090645   -1.634049   1.446537 C.3        1 UNL1     0.1889
     2 C         -0.688368   -0.371566   0.769188 C.3        1 UNL1     0.1342
     3 C         -1.026892   0.774641   1.734629 C.3        1 UNL1     0.1174
     4 C         -1.522697   0.277921   3.094983 C.3        1 UNL1     0.1456
     5 C         -0.643713   -0.848703   3.668105 C.3        1 UNL1     0.2326
     6 O         -0.58102   -1.933581   2.745078 O.3        1 UNL1     -0.3076
     7 O         0.652832   -0.399573   4.102355 O.3        1 UNL1     -0.4605
     8 C         0.699768   0.205725   5.345311 C.ar        1 UNL1     0.1310
     9 C         -0.408486   0.490812   6.15017 C.ar        1 UNL1     0.0226
     10 C         -0.256005   1.092322   7.405095 C.ar        1 UNL1     0.1343
     11 C         1.011561   1.401936   7.896275 C.ar        1 UNL1     0.1007
     12 C         2.122824   1.159563   7.084405 C.ar        1 UNL1     0.1389
     13 C         1.969037   0.557162   5.821514 C.ar        1 UNL1     0.0229
     14 C         1.236418   1.961066   9.249407 C.2        1 UNL1     0.1740
     15 C         2.667363   2.023152   9.696722 C.3        1 UNL1     0.0520
     16 C         3.522793   2.460576   8.515681 C.3        1 UNL1     0.1322
     17 O         3.405635   1.523247   7.422631 O.3        1 UNL1     -0.4828
     18 C         3.323183   3.925428   8.119337 C.ar        1 UNL1     -0.0067
     19 C         3.381371   4.925475   9.111675 C.ar        1 UNL1     -0.0516
     20 C         3.156325   6.269539   8.79104 C.ar        1 UNL1     -0.0198
     21 C         2.865559   6.624742   7.486006 C.ar        1 UNL1     0.1169
     22 C         2.834296   5.666942   6.48078 C.ar        1 UNL1     -0.0198
     23 C         3.077509   4.325171   6.797881 C.ar        1 UNL1     -0.0516
     24 O         2.614836   7.938468   7.218307 O.3        1 UNL1     -0.5068
     25 O         0.325622   2.284681   10.007172 O.2        1 UNL1     -0.2917
     26 O         -1.37731   1.344915   8.140253 O.3        1 UNL1     -0.5058
     27 O         1.326313   -1.684843   1.397187 O.3        1 UNL1     -0.3648
     28 O         -1.908942   -0.74567   0.103642 O.3        1 UNL1     -0.3841
     29 O         0.068527   1.68583   1.843835 O.3        1 UNL1     -0.3863
     30 O         -2.873956   -0.212589   2.956449 O.3        1 UNL1     -0.3829
     31 H         -0.412291   -2.49265   0.847015 H        1 UNL1     0.0937
     32 H         0.0   0.0   0.0 H        1 UNL1     0.0671
     33 H         -1.84688   1.356071   1.290469 H        1 UNL1     0.0649
     34 H         -1.555027   1.109462   3.80765 H        1 UNL1     0.0683
     35 H         -1.205501   -1.204521   4.54084 H        1 UNL1     0.1085
     36 H         -1.415565   0.223666   5.84926 H        1 UNL1     0.0691
     37 H         2.849984   0.380022   5.208288 H        1 UNL1     0.0691
     38 H         2.950615   1.022573   10.040433 H        1 UNL1     0.0385
     39 H         2.748831   2.711858   10.544558 H        1 UNL1     0.0385
     40 H         4.572369   2.385198   8.830687 H        1 UNL1     0.0789
     41 H         3.59873   4.671276   10.145013 H        1 UNL1     0.0623
     42 H         3.192225   7.029912   9.567285 H        1 UNL1     0.0654
     43 H         2.622403   5.936105   5.452887 H        1 UNL1     0.0654
     44 H         3.055519   3.604915   5.985728 H        1 UNL1     0.0623
     45 H         2.727791   8.445586   8.038544 H        1 UNL1     0.2921
     46 H         -2.161107   1.065807   7.641081 H        1 UNL1     0.2922
     47 H         1.621652   -1.936784   0.511094 H        1 UNL1     0.2126
     48 H         -2.64178   -0.466166   0.6855 H        1 UNL1     0.2101
     49 H         0.055638   2.308124   1.09927 H        1 UNL1     0.2100
     50 H         -3.249238   -0.320235   3.854942 H        1 UNL1     0.2102
@<TRIPOS>BOND
     1     1     2    1
     2     1     6    1
     3     2     3    1
     4     3     4    1
     5     3    29    1
     6     3    33    1
     7     4     5    1
     8     5     6    1
     9     5     7    1
    10     5    35    1
    11     7     8    1
    12     8     9   ar
    13     8    13   ar
    14     9    10   ar
    15     9    36    1
    16    10    11   ar
    17    10    26    1
    18    11    12   ar
    19    11    14    1
    20    12    13   ar
    21    12    17    1
    22    13    37    1
    23    14    15    1
    24    14    25    2
    25    15    16    1
    26    15    38    1
    27    15    39    1
    28    16    17    1
    29    16    18    1
    30    16    40    1
    31    18    19   ar
    32    18    23   ar
    33    19    20   ar
    34    19    41    1
    35    20    21   ar
    36    20    42    1
    37    21    22   ar
    38    21    24    1
    39    22    23   ar
    40    22    43    1
    41    23    44    1
    42    24    45    1
    43    26    46    1
    44    27    47    1
    45    28    48    1
    46    29    49    1
    47    30    50    1
    48     1    31    1
    49     1    27    1
    50     2    32    1
    51     2    28    1
    52     4    34    1
    53     4    30    1
