@<TRIPOS>MOLECULE
*****
 50 53 0 0 0
SMALL
GASTEIGER

@<TRIPOS>ATOM
     1 C         1.19721   -1.695511   -0.680247 C.3        1 UNL1     0.1889
     2 C         0.366637   -0.953102   0.400918 C.3        1 UNL1     0.1342
     3 C         1.116115   -0.688516   1.715735 C.3        1 UNL1     0.1174
     4 C         2.093006   -1.80991   2.078056 C.3        1 UNL1     0.1456
     5 C         2.960932   -2.245494   0.883345 C.3        1 UNL1     0.2326
     6 O         2.127906   -2.654071   -0.199245 O.3        1 UNL1     -0.3076
     7 O         3.944513   -1.266394   0.502226 O.3        1 UNL1     -0.4605
     8 C         3.748644   -0.655612   -0.723379 C.ar        1 UNL1     0.1310
     9 C         4.063892   0.673414   -1.026047 C.ar        1 UNL1     0.0226
     10 C         3.842986   1.196227   -2.305801 C.ar        1 UNL1     0.1343
     11 C         3.323065   0.395103   -3.321538 C.ar        1 UNL1     0.1007
     12 C         2.966133   -0.921966   -3.02035 C.ar        1 UNL1     0.1389
     13 C         3.185893   -1.446652   -1.732778 C.ar        1 UNL1     0.0229
     14 C         3.147595   0.871726   -4.713011 C.2        1 UNL1     0.1740
     15 C         2.789468   -0.181648   -5.719837 C.3        1 UNL1     0.0520
     16 C         1.785215   -1.133543   -5.084755 C.3        1 UNL1     0.1322
     17 O         2.34746   -1.765518   -3.913619 O.3        1 UNL1     -0.4828
     18 C         0.401508   -0.515669   -4.869559 C.ar        1 UNL1     -0.0067
     19 C         -0.473303   -0.377103   -5.9667 C.ar        1 UNL1     -0.0516
     20 C         -1.727093   0.226738   -5.813898 C.ar        1 UNL1     -0.0198
     21 C         -2.113899   0.701658   -4.573471 C.ar        1 UNL1     0.1169
     22 C         -1.288191   0.549658   -3.467152 C.ar        1 UNL1     -0.0198
     23 C         -0.041973   -0.070729   -3.615865 C.ar        1 UNL1     -0.0516
     24 O         -3.32639   1.317891   -4.470895 O.3        1 UNL1     -0.5068
     25 O         3.354163   2.031146   -5.061664 O.2        1 UNL1     -0.2917
     26 O         4.171063   2.500502   -2.535618 O.3        1 UNL1     -0.5058
     27 O         1.785845   -0.827605   -1.635775 O.3        1 UNL1     -0.3648
     28 O         -0.787086   -1.753368   0.719043 O.3        1 UNL1     -0.3841
     29 O         1.734683   0.599558   1.696423 O.3        1 UNL1     -0.3863
     30 O         1.347774   -2.952819   2.551425 O.3        1 UNL1     -0.3829
     31 H         0.488741   -2.295745   -1.261513 H        1 UNL1     0.0937
     32 H         0.0   0.0   0.0 H        1 UNL1     0.0671
     33 H         0.371575   -0.642563   2.522747 H        1 UNL1     0.0649
     34 H         2.743178   -1.488663   2.899322 H        1 UNL1     0.0683
     35 H         3.477295   -3.14352   1.245004 H        1 UNL1     0.1085
     36 H         4.522502   1.33117   -0.295872 H        1 UNL1     0.0691
     37 H         2.898312   -2.474758   -1.523521 H        1 UNL1     0.0691
     38 H         3.711615   -0.705379   -5.993472 H        1 UNL1     0.0385
     39 H         2.390951   0.301475   -6.618478 H        1 UNL1     0.0385
     40 H         1.628232   -1.958247   -5.793091 H        1 UNL1     0.0789
     41 H         -0.18932   -0.733483   -6.9526 H        1 UNL1     0.0623
     42 H         -2.387804   0.338438   -6.67005 H        1 UNL1     0.0654
     43 H         -1.587458   0.90442   -2.488125 H        1 UNL1     0.0654
     44 H         0.573021   -0.182188   -2.728057 H        1 UNL1     0.0623
     45 H         -3.27577   1.978116   -3.760784 H        1 UNL1     0.2921
     46 H         4.708713   2.561787   -3.340968 H        1 UNL1     0.2922
     47 H         1.689682   -1.194754   -2.525614 H        1 UNL1     0.2126
     48 H         -0.586006   -2.213446   1.556675 H        1 UNL1     0.2101
     49 H         2.210931   0.724439   0.86013 H        1 UNL1     0.2100
     50 H         1.032494   -3.452009   1.769683 H        1 UNL1     0.2102
@<TRIPOS>BOND
     1     1     2    1
     2     1     6    1
     3     2     3    1
     4     3     4    1
     5     3    29    1
     6     3    33    1
     7     4     5    1
     8     5     6    1
     9     5     7    1
    10     5    35    1
    11     7     8    1
    12     8     9   ar
    13     8    13   ar
    14     9    10   ar
    15     9    36    1
    16    10    11   ar
    17    10    26    1
    18    11    12   ar
    19    11    14    1
    20    12    13   ar
    21    12    17    1
    22    13    37    1
    23    14    15    1
    24    14    25    2
    25    15    16    1
    26    15    38    1
    27    15    39    1
    28    16    17    1
    29    16    18    1
    30    16    40    1
    31    18    19   ar
    32    18    23   ar
    33    19    20   ar
    34    19    41    1
    35    20    21   ar
    36    20    42    1
    37    21    22   ar
    38    21    24    1
    39    22    23   ar
    40    22    43    1
    41    23    44    1
    42    24    45    1
    43    26    46    1
    44    27    47    1
    45    28    48    1
    46    29    49    1
    47    30    50    1
    48     1    31    1
    49     1    27    1
    50     2    32    1
    51     2    28    1
    52     4    34    1
    53     4    30    1
