@<TRIPOS>MOLECULE
*****
 50 53 0 0 0
SMALL
GASTEIGER

@<TRIPOS>ATOM
     1 C         -0.184152   -1.0986   1.878821 C.3        1 UNL1     0.1889
     2 C         -0.406874   -0.957189   0.349005 C.3        1 UNL1     0.1342
     3 C         -1.871977   -1.072105   -0.099029 C.3        1 UNL1     0.1174
     4 C         -2.674317   -2.066067   0.744421 C.3        1 UNL1     0.1456
     5 C         -2.444159   -1.878829   2.255161 C.3        1 UNL1     0.2326
     6 O         -1.054732   -1.995062   2.553241 O.3        1 UNL1     -0.3076
     7 O         -3.037071   -0.677357   2.780747 O.3        1 UNL1     -0.4605
     8 C         -2.758229   0.488441   2.09032 C.ar        1 UNL1     0.1310
     9 C         -3.252829   0.818231   0.823864 C.ar        1 UNL1     0.0226
     10 C         -2.925223   2.034635   0.213177 C.ar        1 UNL1     0.1343
     11 C         -2.113443   2.961982   0.865006 C.ar        1 UNL1     0.1007
     12 C         -1.580285   2.626501   2.112395 C.ar        1 UNL1     0.1389
     13 C         -1.907705   1.402228   2.725079 C.ar        1 UNL1     0.0229
     14 C         -1.803645   4.296845   0.302583 C.2        1 UNL1     0.1740
     15 C         -1.105258   5.246445   1.231057 C.3        1 UNL1     0.0520
     16 C         -0.063   4.467905   2.021963 C.3        1 UNL1     0.1322
     17 O         -0.684851   3.417306   2.794371 O.3        1 UNL1     -0.4828
     18 C         1.134817   4.014895   1.183667 C.ar        1 UNL1     -0.0067
     19 C         2.434601   4.118712   1.720322 C.ar        1 UNL1     -0.0516
     20 C         3.55537   3.757781   0.962979 C.ar        1 UNL1     -0.0198
     21 C         3.390526   3.29961   -0.331908 C.ar        1 UNL1     0.1169
     22 C         2.121139   3.154682   -0.876419 C.ar        1 UNL1     -0.0198
     23 C         0.999068   3.498091   -0.112821 C.ar        1 UNL1     -0.0516
     24 O         4.507564   2.993438   -1.052246 O.3        1 UNL1     -0.5068
     25 O         -2.15503   4.656534   -0.81797 O.2        1 UNL1     -0.2917
     26 O         -3.439615   2.295142   -1.0234 O.3        1 UNL1     -0.5058
     27 O         -0.088444   0.145706   2.553601 O.3        1 UNL1     -0.3648
     28 O         0.327942   -2.000654   -0.317277 O.3        1 UNL1     -0.3841
     29 O         -2.484259   0.217359   -0.166305 O.3        1 UNL1     -0.3863
     30 O         -2.294665   -3.411052   0.380322 O.3        1 UNL1     -0.3829
     31 H         0.803741   -1.55339   2.0104 H        1 UNL1     0.0937
     32 H         0.0   0.0   0.0 H        1 UNL1     0.0671
     33 H         -1.878506   -1.452346   -1.130093 H        1 UNL1     0.0649
     34 H         -3.743157   -1.964486   0.526103 H        1 UNL1     0.0683
     35 H         -2.94113   -2.745957   2.707915 H        1 UNL1     0.1085
     36 H         -3.933375   0.164455   0.289491 H        1 UNL1     0.0691
     37 H         -1.478651   1.164341   3.696066 H        1 UNL1     0.0691
     38 H         -1.862489   5.67851   1.893966 H        1 UNL1     0.0385
     39 H         -0.659712   6.058117   0.64586 H        1 UNL1     0.0385
     40 H         0.351107   5.15317   2.773925 H        1 UNL1     0.0789
     41 H         2.591168   4.484164   2.731056 H        1 UNL1     0.0623
     42 H         4.553215   3.853619   1.383849 H        1 UNL1     0.0654
     43 H         1.979773   2.782644   -1.884146 H        1 UNL1     0.0654
     44 H         0.021927   3.362186   -0.56622 H        1 UNL1     0.0623
     45 H         5.035737   3.801344   -1.157314 H        1 UNL1     0.2921
     46 H         -4.226427   1.746297   -1.168683 H        1 UNL1     0.2922
     47 H         -0.747608   0.195107   3.259946 H        1 UNL1     0.2126
     48 H         -0.285181   -2.754115   -0.417819 H        1 UNL1     0.2101
     49 H         -1.905861   0.879196   0.245059 H        1 UNL1     0.2100
     50 H         -1.877765   -3.377305   -0.50555 H        1 UNL1     0.2102
@<TRIPOS>BOND
     1     1     2    1
     2     1     6    1
     3     2     3    1
     4     3     4    1
     5     3    29    1
     6     3    33    1
     7     4     5    1
     8     5     6    1
     9     5     7    1
    10     5    35    1
    11     7     8    1
    12     8     9   ar
    13     8    13   ar
    14     9    10   ar
    15     9    36    1
    16    10    11   ar
    17    10    26    1
    18    11    12   ar
    19    11    14    1
    20    12    13   ar
    21    12    17    1
    22    13    37    1
    23    14    15    1
    24    14    25    2
    25    15    16    1
    26    15    38    1
    27    15    39    1
    28    16    17    1
    29    16    18    1
    30    16    40    1
    31    18    19   ar
    32    18    23   ar
    33    19    20   ar
    34    19    41    1
    35    20    21   ar
    36    20    42    1
    37    21    22   ar
    38    21    24    1
    39    22    23   ar
    40    22    43    1
    41    23    44    1
    42    24    45    1
    43    26    46    1
    44    27    47    1
    45    28    48    1
    46    29    49    1
    47    30    50    1
    48     1    31    1
    49     1    27    1
    50     2    32    1
    51     2    28    1
    52     4    34    1
    53     4    30    1
