@<TRIPOS>MOLECULE
*****
 50 53 0 0 0
SMALL
GASTEIGER

@<TRIPOS>ATOM
     1 C         -0.371274   -1.398149   1.636502 C.3        1 UNL1     0.1889
     2 C         -0.488103   -0.971211   0.148545 C.3        1 UNL1     0.1342
     3 C         -1.926543   -0.896086   -0.385976 C.3        1 UNL1     0.1174
     4 C         -2.841896   -1.961959   0.22161 C.3        1 UNL1     0.1456
     5 C         -2.695533   -2.063548   1.750865 C.3        1 UNL1     0.2326
     6 O         -1.337778   -2.333279   2.092352 O.3        1 UNL1     -0.3076
     7 O         -3.242536   -0.934028   2.455345 O.3        1 UNL1     -0.4605
     8 C         -3.771883   -1.197881   3.705825 C.ar        1 UNL1     0.1310
     9 C         -4.615687   -2.268949   4.019049 C.ar        1 UNL1     0.0226
     10 C         -5.087259   -2.461436   5.32307 C.ar        1 UNL1     0.1343
     11 C         -4.706889   -1.600289   6.35146 C.ar        1 UNL1     0.1007
     12 C         -3.89777   -0.503552   6.04279 C.ar        1 UNL1     0.1389
     13 C         -3.425878   -0.308716   4.731002 C.ar        1 UNL1     0.0229
     14 C         -5.107573   -1.804882   7.762753 C.2        1 UNL1     0.1740
     15 C         -4.429635   -0.917826   8.76529 C.3        1 UNL1     0.0520
     16 C         -4.322814   0.481811   8.175745 C.3        1 UNL1     0.1322
     17 O         -3.551058   0.466335   6.954589 O.3        1 UNL1     -0.4828
     18 C         -5.665151   1.209401   8.06865 C.ar        1 UNL1     -0.0067
     19 C         -5.687115   2.573026   7.710521 C.ar        1 UNL1     -0.0516
     20 C         -6.89373   3.280374   7.649666 C.ar        1 UNL1     -0.0198
     21 C         -8.081725   2.638799   7.951123 C.ar        1 UNL1     0.1169
     22 C         -8.095819   1.288228   8.274537 C.ar        1 UNL1     -0.0198
     23 C         -6.891249   0.576034   8.317498 C.ar        1 UNL1     -0.0516
     24 O         -9.232973   3.369507   7.918031 O.3        1 UNL1     -0.5068
     25 O         -5.880154   -2.688284   8.124976 O.2        1 UNL1     -0.2917
     26 O         -5.908035   -3.524801   5.562167 O.3        1 UNL1     -0.5058
     27 O         -0.239048   -0.304005   2.529895 O.3        1 UNL1     -0.3648
     28 O         0.219127   -1.93118   -0.658295 O.3        1 UNL1     -0.3841
     29 O         -2.450033   0.42651   -0.248746 O.3        1 UNL1     -0.3863
     30 O         -2.526572   -3.245225   -0.361046 O.3        1 UNL1     -0.3829
     31 H         0.575443   -1.940853   1.732825 H        1 UNL1     0.0937
     32 H         0.0   0.0   0.0 H        1 UNL1     0.0671
     33 H         -1.892563   -1.085621   -1.467938 H        1 UNL1     0.0649
     34 H         -3.886287   -1.744476   -0.028088 H        1 UNL1     0.0683
     35 H         -3.274147   -2.958146   2.013123 H        1 UNL1     0.1085
     36 H         -4.902497   -3.00508   3.276102 H        1 UNL1     0.0691
     37 H         -2.798164   0.553507   4.516438 H        1 UNL1     0.0691
     38 H         -3.438509   -1.339465   8.963823 H        1 UNL1     0.0385
     39 H         -5.00042   -0.930912   9.700069 H        1 UNL1     0.0385
     40 H         -3.721955   1.081623   8.872677 H        1 UNL1     0.0789
     41 H         -4.767212   3.101665   7.478209 H        1 UNL1     0.0623
     42 H         -6.896347   4.334569   7.383813 H        1 UNL1     0.0654
     43 H         -9.022033   0.772265   8.497742 H        1 UNL1     0.0654
     44 H         -6.940532   -0.480326   8.563509 H        1 UNL1     0.0623
     45 H         -9.189633   4.041929   8.617092 H        1 UNL1     0.2921
     46 H         -5.535771   -4.066818   6.275644 H        1 UNL1     0.2922
     47 H         0.506277   0.254188   2.267652 H        1 UNL1     0.2126
     48 H         1.171317   -1.779537   -0.503149 H        1 UNL1     0.2101
     49 H         -2.134153   0.98375   -0.977785 H        1 UNL1     0.2100
     50 H         -2.783554   -3.218633   -1.306015 H        1 UNL1     0.2102
@<TRIPOS>BOND
     1     1     2    1
     2     1     6    1
     3     2     3    1
     4     3     4    1
     5     3    29    1
     6     3    33    1
     7     4     5    1
     8     5     6    1
     9     5     7    1
    10     5    35    1
    11     7     8    1
    12     8     9   ar
    13     8    13   ar
    14     9    10   ar
    15     9    36    1
    16    10    11   ar
    17    10    26    1
    18    11    12   ar
    19    11    14    1
    20    12    13   ar
    21    12    17    1
    22    13    37    1
    23    14    15    1
    24    14    25    2
    25    15    16    1
    26    15    38    1
    27    15    39    1
    28    16    17    1
    29    16    18    1
    30    16    40    1
    31    18    19   ar
    32    18    23   ar
    33    19    20   ar
    34    19    41    1
    35    20    21   ar
    36    20    42    1
    37    21    22   ar
    38    21    24    1
    39    22    23   ar
    40    22    43    1
    41    23    44    1
    42    24    45    1
    43    26    46    1
    44    27    47    1
    45    28    48    1
    46    29    49    1
    47    30    50    1
    48     1    31    1
    49     1    27    1
    50     2    32    1
    51     2    28    1
    52     4    34    1
    53     4    30    1
