@<TRIPOS>MOLECULE
*****
 50 53 0 0 0
SMALL
GASTEIGER

@<TRIPOS>ATOM
     1 C         -2.056596   -0.701567   0.221403 C.3        1 UNL1     0.1889
     2 C         -0.714116   -0.191137   0.810596 C.3        1 UNL1     0.1342
     3 C         -0.065924   -1.13169   1.838054 C.3        1 UNL1     0.1174
     4 C         -1.094411   -1.8715   2.697131 C.3        1 UNL1     0.1456
     5 C         -2.238888   -2.472624   1.860958 C.3        1 UNL1     0.2326
     6 O         -2.880037   -1.446918   1.106158 O.3        1 UNL1     -0.3076
     7 O         -1.833395   -3.596343   1.058368 O.3        1 UNL1     -0.4605
     8 C         -2.794633   -4.568277   0.846478 C.ar        1 UNL1     0.1310
     9 C         -3.406088   -5.334481   1.844654 C.ar        1 UNL1     0.0226
     10 C         -4.384267   -6.285295   1.529981 C.ar        1 UNL1     0.1343
     11 C         -4.7922   -6.476381   0.210542 C.ar        1 UNL1     0.1007
     12 C         -4.159659   -5.746283   -0.799227 C.ar        1 UNL1     0.1389
     13 C         -3.174254   -4.792185   -0.482834 C.ar        1 UNL1     0.0229
     14 C         -5.880096   -7.407183   -0.169252 C.2        1 UNL1     0.1740
     15 C         -6.338471   -7.322725   -1.595544 C.3        1 UNL1     0.0520
     16 C         -5.115893   -7.141388   -2.484575 C.3        1 UNL1     0.1322
     17 O         -4.40615   -5.931219   -2.139864 O.3        1 UNL1     -0.4828
     18 C         -4.233794   -8.388508   -2.58111 C.ar        1 UNL1     -0.0067
     19 C         -4.641721   -9.576576   -1.940562 C.ar        1 UNL1     -0.0516
     20 C         -3.83607   -10.721159   -1.969197 C.ar        1 UNL1     -0.0198
     21 C         -2.619658   -10.688346   -2.627294 C.ar        1 UNL1     0.1169
     22 C         -2.205948   -9.543433   -3.295768 C.ar        1 UNL1     -0.0198
     23 C         -3.019866   -8.404386   -3.282907 C.ar        1 UNL1     -0.0516
     24 O         -1.844828   -11.81057   -2.60178 O.3        1 UNL1     -0.5068
     25 O         -6.442404   -8.151799   0.629397 O.2        1 UNL1     -0.2917
     26 O         -4.940887   -7.000472   2.549923 O.3        1 UNL1     -0.5058
     27 O         -1.913555   -1.350014   -1.032328 O.3        1 UNL1     -0.3648
     28 O         -0.954406   1.065074   1.471582 O.3        1 UNL1     -0.3841
     29 O         0.862092   -2.013761   1.203333 O.3        1 UNL1     -0.3863
     30 O         -1.655904   -0.9531   3.659917 O.3        1 UNL1     -0.3829
     31 H         -2.658189   0.186427   -0.001379 H        1 UNL1     0.0937
     32 H         0.0   0.0   0.0 H        1 UNL1     0.0671
     33 H         0.536372   -0.517394   2.521867 H        1 UNL1     0.0649
     34 H         -0.603034   -2.66976   3.264345 H        1 UNL1     0.0683
     35 H         -2.96226   -2.816208   2.611001 H        1 UNL1     0.1085
     36 H         -3.173077   -5.193968   2.894455 H        1 UNL1     0.0691
     37 H         -2.696187   -4.237584   -1.287423 H        1 UNL1     0.0691
     38 H         -7.015637   -6.465656   -1.675584 H        1 UNL1     0.0385
     39 H         -6.901732   -8.228214   -1.845757 H        1 UNL1     0.0385
     40 H         -5.481233   -6.964154   -3.50518 H        1 UNL1     0.0789
     41 H         -5.587926   -9.625168   -1.409539 H        1 UNL1     0.0623
     42 H         -4.156219   -11.627594   -1.461366 H        1 UNL1     0.0654
     43 H         -1.26215   -9.511504   -3.826935 H        1 UNL1     0.0654
     44 H         -2.670223   -7.530777   -3.824574 H        1 UNL1     0.0623
     45 H         -1.60874   -11.999345   -1.679098 H        1 UNL1     0.2921
     46 H         -5.882574   -7.145824   2.366866 H        1 UNL1     0.2922
     47 H         -2.770833   -1.4138   -1.476023 H        1 UNL1     0.2126
     48 H         -0.448797   1.042855   2.306805 H        1 UNL1     0.2101
     49 H         0.932128   -2.838869   1.709382 H        1 UNL1     0.2100
     50 H         -2.54294   -0.686662   3.34071 H        1 UNL1     0.2102
@<TRIPOS>BOND
     1     1     2    1
     2     1     6    1
     3     2     3    1
     4     3     4    1
     5     3    29    1
     6     3    33    1
     7     4     5    1
     8     5     6    1
     9     5     7    1
    10     5    35    1
    11     7     8    1
    12     8     9   ar
    13     8    13   ar
    14     9    10   ar
    15     9    36    1
    16    10    11   ar
    17    10    26    1
    18    11    12   ar
    19    11    14    1
    20    12    13   ar
    21    12    17    1
    22    13    37    1
    23    14    15    1
    24    14    25    2
    25    15    16    1
    26    15    38    1
    27    15    39    1
    28    16    17    1
    29    16    18    1
    30    16    40    1
    31    18    19   ar
    32    18    23   ar
    33    19    20   ar
    34    19    41    1
    35    20    21   ar
    36    20    42    1
    37    21    22   ar
    38    21    24    1
    39    22    23   ar
    40    22    43    1
    41    23    44    1
    42    24    45    1
    43    26    46    1
    44    27    47    1
    45    28    48    1
    46    29    49    1
    47    30    50    1
    48     1    31    1
    49     1    27    1
    50     2    32    1
    51     2    28    1
    52     4    34    1
    53     4    30    1
