@<TRIPOS>MOLECULE
*****
 50 53 0 0 0
SMALL
GASTEIGER

@<TRIPOS>ATOM
     1 C         -0.168956   -1.236589   1.792514 C.3        1 UNL1     0.1889
     2 C         -0.370947   -0.995913   0.272246 C.3        1 UNL1     0.1342
     3 C         -1.821659   -1.140114   -0.212632 C.3        1 UNL1     0.1174
     4 C         -2.594648   -2.224578   0.542047 C.3        1 UNL1     0.1456
     5 C         -2.399166   -2.136061   2.066618 C.3        1 UNL1     0.2326
     6 O         -1.011402   -2.214703   2.3841 O.3        1 UNL1     -0.3076
     7 O         -3.052738   -1.001149   2.663392 O.3        1 UNL1     -0.4605
     8 C         -3.506559   -1.174779   3.958547 C.ar        1 UNL1     0.1310
     9 C         -4.216424   -2.285883   4.42635 C.ar        1 UNL1     0.0226
     10 C         -4.618843   -2.376825   5.764144 C.ar        1 UNL1     0.1343
     11 C         -4.300104   -1.368738   6.672994 C.ar        1 UNL1     0.1007
     12 C         -3.627353   -0.235405   6.208509 C.ar        1 UNL1     0.1389
     13 C         -3.225142   -0.142997   4.862731 C.ar        1 UNL1     0.0229
     14 C         -4.627082   -1.45194   8.115324 C.2        1 UNL1     0.1740
     15 C         -4.016484   -0.389907   8.981813 C.3        1 UNL1     0.0520
     16 C         -4.084284   0.936725   8.237899 C.3        1 UNL1     0.1322
     17 O         -3.357996   0.863257   6.991232 O.3        1 UNL1     -0.4828
     18 C         -5.501253   1.502073   8.11419 C.ar        1 UNL1     -0.0067
     19 C         -5.961767   1.947986   6.858283 C.ar        1 UNL1     -0.0516
     20 C         -7.234718   2.513939   6.719517 C.ar        1 UNL1     -0.0198
     21 C         -8.052001   2.645983   7.827868 C.ar        1 UNL1     0.1169
     22 C         -7.63966   2.185664   9.07162 C.ar        1 UNL1     -0.0198
     23 C         -6.373963   1.602832   9.207177 C.ar        1 UNL1     -0.0516
     24 O         -9.270158   3.236521   7.661262 O.3        1 UNL1     -0.5068
     25 O         -5.285108   -2.364568   8.607866 O.2        1 UNL1     -0.2917
     26 O         -5.309231   -3.486356   6.15643 O.3        1 UNL1     -0.5058
     27 O         -0.139118   -0.040661   2.555176 O.3        1 UNL1     -0.3648
     28 O         0.419963   -1.957354   -0.450801 O.3        1 UNL1     -0.3841
     29 O         -2.488082   0.123961   -0.201311 O.3        1 UNL1     -0.3863
     30 O         -2.150683   -3.523001   0.091845 O.3        1 UNL1     -0.3829
     31 H         0.83531   -1.65764   1.911861 H        1 UNL1     0.0937
     32 H         0.0   0.0   0.0 H        1 UNL1     0.0671
     33 H         -1.793728   -1.445779   -1.267861 H        1 UNL1     0.0649
     34 H         -3.662929   -2.15274   0.309632 H        1 UNL1     0.0683
     35 H         -2.865827   -3.053413   2.446843 H        1 UNL1     0.1085
     36 H         -4.446118   -3.128052   3.782834 H        1 UNL1     0.0691
     37 H         -2.703613   0.750322   4.525861 H        1 UNL1     0.0691
     38 H         -2.978824   -0.67952   9.179078 H        1 UNL1     0.0385
     39 H         -4.54986   -0.356196   9.937927 H        1 UNL1     0.0385
     40 H         -3.52925   1.67201   8.836073 H        1 UNL1     0.0789
     41 H         -5.33576   1.863824   5.974721 H        1 UNL1     0.0623
     42 H         -7.573754   2.864899   5.747976 H        1 UNL1     0.0654
     43 H         -8.277565   2.270424   9.943287 H        1 UNL1     0.0654
     44 H         -6.088533   1.244531   10.191552 H        1 UNL1     0.0623
     45 H         -9.95733   2.598339   7.912727 H        1 UNL1     0.2921
     46 H         -4.842109   -3.915202   6.890801 H        1 UNL1     0.2922
     47 H         0.545449   0.554185   2.218448 H        1 UNL1     0.2126
     48 H         1.351033   -1.795387   -0.204614 H        1 UNL1     0.2101
     49 H         -2.118916   0.697844   -0.891361 H        1 UNL1     0.2100
     50 H         -2.407955   -3.620314   -0.848397 H        1 UNL1     0.2102
@<TRIPOS>BOND
     1     1     2    1
     2     1     6    1
     3     2     3    1
     4     3     4    1
     5     3    29    1
     6     3    33    1
     7     4     5    1
     8     5     6    1
     9     5     7    1
    10     5    35    1
    11     7     8    1
    12     8     9   ar
    13     8    13   ar
    14     9    10   ar
    15     9    36    1
    16    10    11   ar
    17    10    26    1
    18    11    12   ar
    19    11    14    1
    20    12    13   ar
    21    12    17    1
    22    13    37    1
    23    14    15    1
    24    14    25    2
    25    15    16    1
    26    15    38    1
    27    15    39    1
    28    16    17    1
    29    16    18    1
    30    16    40    1
    31    18    19   ar
    32    18    23   ar
    33    19    20   ar
    34    19    41    1
    35    20    21   ar
    36    20    42    1
    37    21    22   ar
    38    21    24    1
    39    22    23   ar
    40    22    43    1
    41    23    44    1
    42    24    45    1
    43    26    46    1
    44    27    47    1
    45    28    48    1
    46    29    49    1
    47    30    50    1
    48     1    31    1
    49     1    27    1
    50     2    32    1
    51     2    28    1
    52     4    34    1
    53     4    30    1
