@<TRIPOS>MOLECULE
*****
 50 53 0 0 0
SMALL
GASTEIGER

@<TRIPOS>ATOM
     1 C         -0.356118   -1.338993   1.688515 C.3        1 UNL1     0.1889
     2 C         -0.475246   -0.971329   0.184995 C.3        1 UNL1     0.1342
     3 C         -1.91332   -0.936461   -0.354628 C.3        1 UNL1     0.1174
     4 C         -2.815565   -1.99051   0.291941 C.3        1 UNL1     0.1456
     5 C         -2.67141   -2.031104   1.824238 C.3        1 UNL1     0.2326
     6 O         -1.310926   -2.26895   2.178329 O.3        1 UNL1     -0.3076
     7 O         -3.235308   -0.88284   2.483655 O.3        1 UNL1     -0.4605
     8 C         -3.75333   -1.103072   3.747253 C.ar        1 UNL1     0.1310
     9 C         -4.584291   -2.169258   4.107879 C.ar        1 UNL1     0.0226
     10 C         -5.044879   -2.315547   5.421789 C.ar        1 UNL1     0.1343
     11 C         -4.665933   -1.411534   6.413253 C.ar        1 UNL1     0.1007
     12 C         -3.869877   -0.319856   6.056438 C.ar        1 UNL1     0.1389
     13 C         -3.409048   -0.171518   4.734672 C.ar        1 UNL1     0.0229
     14 C         -5.054774   -1.565075   7.834303 C.2        1 UNL1     0.1740
     15 C         -4.378718   -0.633311   8.796754 C.3        1 UNL1     0.0520
     16 C         -4.289856   0.743367   8.15269 C.3        1 UNL1     0.1322
     17 O         -3.526472   0.687964   6.927437 O.3        1 UNL1     -0.4828
     18 C         -5.640044   1.453296   8.027323 C.ar        1 UNL1     -0.0067
     19 C         -6.006756   2.031272   6.79457 C.ar        1 UNL1     -0.0516
     20 C         -7.213062   2.728656   6.658763 C.ar        1 UNL1     -0.0198
     21 C         -8.055983   2.861086   7.747695 C.ar        1 UNL1     0.1169
     22 C         -7.738101   2.274441   8.965742 C.ar        1 UNL1     -0.0198
     23 C         -6.54051   1.56125   9.096857 C.ar        1 UNL1     -0.0516
     24 O         -9.204352   3.579454   7.587704 O.3        1 UNL1     -0.5068
     25 O         -5.816036   -2.441159   8.236102 O.2        1 UNL1     -0.2917
     26 O         -5.853404   -3.37669   5.707878 O.3        1 UNL1     -0.5058
     27 O         -0.240812   -0.209541   2.539298 O.3        1 UNL1     -0.3648
     28 O         0.246806   -1.951943   -0.582953 O.3        1 UNL1     -0.3841
     29 O         -2.454999   0.383183   -0.269441 O.3        1 UNL1     -0.3863
     30 O         -2.481526   -3.290855   -0.240234 O.3        1 UNL1     -0.3829
     31 H         0.597637   -1.864631   1.807404 H        1 UNL1     0.0937
     32 H         0.0   0.0   0.0 H        1 UNL1     0.0671
     33 H         -1.87425   -1.167058   -1.428415 H        1 UNL1     0.0649
     34 H         -3.862221   -1.797061   0.032154 H        1 UNL1     0.0683
     35 H         -3.238462   -2.922735   2.119744 H        1 UNL1     0.1085
     36 H         -4.868942   -2.936382   3.39611 H        1 UNL1     0.0691
     37 H         -2.791407   0.687737   4.482297 H        1 UNL1     0.0691
     38 H         -3.382111   -1.037368   9.004211 H        1 UNL1     0.0385
     39 H         -4.942849   -0.615621   9.735489 H        1 UNL1     0.0385
     40 H         -3.690149   1.37552   8.82146 H        1 UNL1     0.0789
     41 H         -5.358143   1.949165   5.927269 H        1 UNL1     0.0623
     42 H         -7.479049   3.180033   5.706124 H        1 UNL1     0.0654
     43 H         -8.398032   2.359169   9.820858 H        1 UNL1     0.0654
     44 H         -6.329042   1.106963   10.060054 H        1 UNL1     0.0623
     45 H         -9.958908   2.995904   7.768896 H        1 UNL1     0.2921
     46 H         -5.458367   -3.901042   6.42231 H        1 UNL1     0.2922
     47 H         0.510272   0.337358   2.269792 H        1 UNL1     0.2126
     48 H         1.178949   -1.900766   -0.296207 H        1 UNL1     0.2101
     49 H         -2.006009   0.96572   -0.90257 H        1 UNL1     0.2100
     50 H         -2.710516   -3.294721   -1.192737 H        1 UNL1     0.2102
@<TRIPOS>BOND
     1     1     2    1
     2     1     6    1
     3     2     3    1
     4     3     4    1
     5     3    29    1
     6     3    33    1
     7     4     5    1
     8     5     6    1
     9     5     7    1
    10     5    35    1
    11     7     8    1
    12     8     9   ar
    13     8    13   ar
    14     9    10   ar
    15     9    36    1
    16    10    11   ar
    17    10    26    1
    18    11    12   ar
    19    11    14    1
    20    12    13   ar
    21    12    17    1
    22    13    37    1
    23    14    15    1
    24    14    25    2
    25    15    16    1
    26    15    38    1
    27    15    39    1
    28    16    17    1
    29    16    18    1
    30    16    40    1
    31    18    19   ar
    32    18    23   ar
    33    19    20   ar
    34    19    41    1
    35    20    21   ar
    36    20    42    1
    37    21    22   ar
    38    21    24    1
    39    22    23   ar
    40    22    43    1
    41    23    44    1
    42    24    45    1
    43    26    46    1
    44    27    47    1
    45    28    48    1
    46    29    49    1
    47    30    50    1
    48     1    31    1
    49     1    27    1
    50     2    32    1
    51     2    28    1
    52     4    34    1
    53     4    30    1
