@<TRIPOS>MOLECULE
*****
 50 53 0 0 0
SMALL
GASTEIGER

@<TRIPOS>ATOM
     1 C         -1.576558   -0.933159   1.18932 C.3        1 UNL1     0.1889
     2 C         -1.094933   0.022418   0.064665 C.3        1 UNL1     0.1342
     3 C         -1.558074   1.479182   0.218952 C.3        1 UNL1     0.1174
     4 C         -2.955328   1.595849   0.833107 C.3        1 UNL1     0.1456
     5 C         -3.132965   0.697419   2.070699 C.3        1 UNL1     0.2326
     6 O         -2.861249   -0.659896   1.729037 O.3        1 UNL1     -0.3076
     7 O         -2.393389   1.150804   3.219085 O.3        1 UNL1     -0.4605
     8 C         -3.111242   1.871347   4.156653 C.ar        1 UNL1     0.1310
     9 C         -2.86694   3.200753   4.517618 C.ar        1 UNL1     0.0226
     10 C         -3.662968   3.850509   5.468438 C.ar        1 UNL1     0.1343
     11 C         -4.738481   3.193377   6.064499 C.ar        1 UNL1     0.1007
     12 C         -4.967106   1.852929   5.742456 C.ar        1 UNL1     0.1389
     13 C         -4.164932   1.199014   4.788337 C.ar        1 UNL1     0.0229
     14 C         -5.662822   3.857518   7.012479 C.2        1 UNL1     0.1740
     15 C         -6.887864   3.073619   7.381698 C.3        1 UNL1     0.0520
     16 C         -6.489466   1.615858   7.56655 C.3        1 UNL1     0.1322
     17 O         -5.929618   1.078775   6.347869 O.3        1 UNL1     -0.4828
     18 C         -5.645896   1.361581   8.818131 C.ar        1 UNL1     -0.0067
     19 C         -5.081579   0.08615   9.025583 C.ar        1 UNL1     -0.0516
     20 C         -4.344549   -0.193702   10.182489 C.ar        1 UNL1     -0.0198
     21 C         -4.171299   0.788939   11.140731 C.ar        1 UNL1     0.1169
     22 C         -4.686461   2.064414   10.949389 C.ar        1 UNL1     -0.0198
     23 C         -5.407869   2.349922   9.784009 C.ar        1 UNL1     -0.0516
     24 O         -3.479824   0.468523   12.271923 O.3        1 UNL1     -0.5068
     25 O         -5.502648   5.004451   7.421592 O.2        1 UNL1     -0.2917
     26 O         -3.371198   5.147166   5.776879 O.3        1 UNL1     -0.5058
     27 O         -0.612202   -1.136593   2.209819 O.3        1 UNL1     -0.3648
     28 O         -1.60579   -0.458646   -1.192438 O.3        1 UNL1     -0.3841
     29 O         -0.579782   2.250857   0.918662 O.3        1 UNL1     -0.3863
     30 O         -3.939993   1.223776   -0.155673 O.3        1 UNL1     -0.3829
     31 H         -1.696283   -1.920789   0.7307 H        1 UNL1     0.0937
     32 H         0.0   0.0   0.0 H        1 UNL1     0.0671
     33 H         -1.614533   1.921293   -0.785573 H        1 UNL1     0.0649
     34 H         -3.156458   2.636677   1.109918 H        1 UNL1     0.0683
     35 H         -4.205569   0.761882   2.292609 H        1 UNL1     0.1085
     36 H         -2.08113   3.7835   4.049612 H        1 UNL1     0.0691
     37 H         -4.362911   0.15483   4.556004 H        1 UNL1     0.0691
     38 H         -7.610635   3.185198   6.56642 H        1 UNL1     0.0385
     39 H         -7.327432   3.501018   8.289381 H        1 UNL1     0.0385
     40 H         -7.414941   1.044164   7.718805 H        1 UNL1     0.0789
     41 H         -5.211023   -0.704911   8.292701 H        1 UNL1     0.0623
     42 H         -3.924491   -1.18459   10.336453 H        1 UNL1     0.0654
     43 H         -4.543929   2.845716   11.686385 H        1 UNL1     0.0654
     44 H         -5.787075   3.360015   9.662517 H        1 UNL1     0.0623
     45 H         -3.868307   -0.336435   12.651187 H        1 UNL1     0.2921
     46 H         -4.131489   5.710004   5.561048 H        1 UNL1     0.2922
     47 H         -0.018813   -1.861993   1.969936 H        1 UNL1     0.2126
     48 H         -1.678797   0.317828   -1.780222 H        1 UNL1     0.2101
     49 H         -0.70011   2.146513   1.875964 H        1 UNL1     0.2100
     50 H         -4.724753   0.875861   0.316365 H        1 UNL1     0.2102
@<TRIPOS>BOND
     1     1     2    1
     2     1     6    1
     3     2     3    1
     4     3     4    1
     5     3    29    1
     6     3    33    1
     7     4     5    1
     8     5     6    1
     9     5     7    1
    10     5    35    1
    11     7     8    1
    12     8     9   ar
    13     8    13   ar
    14     9    10   ar
    15     9    36    1
    16    10    11   ar
    17    10    26    1
    18    11    12   ar
    19    11    14    1
    20    12    13   ar
    21    12    17    1
    22    13    37    1
    23    14    15    1
    24    14    25    2
    25    15    16    1
    26    15    38    1
    27    15    39    1
    28    16    17    1
    29    16    18    1
    30    16    40    1
    31    18    19   ar
    32    18    23   ar
    33    19    20   ar
    34    19    41    1
    35    20    21   ar
    36    20    42    1
    37    21    22   ar
    38    21    24    1
    39    22    23   ar
    40    22    43    1
    41    23    44    1
    42    24    45    1
    43    26    46    1
    44    27    47    1
    45    28    48    1
    46    29    49    1
    47    30    50    1
    48     1    31    1
    49     1    27    1
    50     2    32    1
    51     2    28    1
    52     4    34    1
    53     4    30    1
