@<TRIPOS>MOLECULE
*****
 50 53 0 0 0
SMALL
GASTEIGER

@<TRIPOS>ATOM
     1 C         0.017162   2.007284   -0.861001 C.3        1 UNL1     0.1889
     2 C         0.592426   0.919409   0.085329 C.3        1 UNL1     0.1342
     3 C         0.669005   1.330797   1.563625 C.3        1 UNL1     0.1174
     4 C         0.992083   2.815311   1.750588 C.3        1 UNL1     0.1456
     5 C         0.143693   3.723044   0.841402 C.3        1 UNL1     0.2326
     6 O         0.326114   3.351408   -0.522958 O.3        1 UNL1     -0.3076
     7 O         -1.24061   3.790074   1.229389 O.3        1 UNL1     -0.4605
     8 C         -1.486723   4.187495   2.531315 C.ar        1 UNL1     0.1310
     9 C         -2.338643   5.229465   2.913196 C.ar        1 UNL1     0.0226
     10 C         -2.535772   5.545443   4.262714 C.ar        1 UNL1     0.1343
     11 C         -1.903542   4.81093   5.26502 C.ar        1 UNL1     0.1007
     12 C         -1.018686   3.794693   4.894786 C.ar        1 UNL1     0.1389
     13 C         -0.818602   3.478895   3.537704 C.ar        1 UNL1     0.0229
     14 C         -2.140701   5.047226   6.70796 C.2        1 UNL1     0.1740
     15 C         -1.555295   4.025532   7.638009 C.3        1 UNL1     0.0520
     16 C         -0.175319   3.640026   7.123218 C.3        1 UNL1     0.1322
     17 O         -0.261728   3.080303   5.79419 O.3        1 UNL1     -0.4828
     18 C         0.871499   4.745746   7.279036 C.ar        1 UNL1     -0.0067
     19 C         0.86152   5.550706   8.436687 C.ar        1 UNL1     -0.0516
     20 C         1.774645   6.600892   8.589245 C.ar        1 UNL1     -0.0198
     21 C         2.695852   6.860379   7.590309 C.ar        1 UNL1     0.1169
     22 C         2.752244   6.064236   6.453728 C.ar        1 UNL1     -0.0198
     23 C         1.85128   5.002428   6.309223 C.ar        1 UNL1     -0.0516
     24 O         3.544474   7.915104   7.757032 O.3        1 UNL1     -0.5068
     25 O         -2.834528   5.965061   7.137689 O.2        1 UNL1     -0.2917
     26 O         -3.378661   6.573907   4.568302 O.3        1 UNL1     -0.5058
     27 O         -1.364066   1.841475   -1.139398 O.3        1 UNL1     -0.3648
     28 O         1.930866   0.604847   -0.341677 O.3        1 UNL1     -0.3841
     29 O         -0.510146   0.928596   2.263605 O.3        1 UNL1     -0.3863
     30 O         2.388223   3.03715   1.455169 O.3        1 UNL1     -0.3829
     31 H         0.50638   1.868347   -1.83128 H        1 UNL1     0.0937
     32 H         0.0   0.0   0.0 H        1 UNL1     0.0671
     33 H         1.490161   0.766064   2.026764 H        1 UNL1     0.0649
     34 H         0.835993   3.10323   2.796121 H        1 UNL1     0.0683
     35 H         0.594111   4.715945   0.964483 H        1 UNL1     0.1085
     36 H         -2.902195   5.80147   2.184265 H        1 UNL1     0.0691
     37 H         -0.123648   2.683989   3.27568 H        1 UNL1     0.0691
     38 H         -2.228763   3.16189   7.647489 H        1 UNL1     0.0385
     39 H         -1.518157   4.441454   8.650633 H        1 UNL1     0.0385
     40 H         0.183041   2.810504   7.747709 H        1 UNL1     0.0789
     41 H         0.142411   5.373167   9.23105 H        1 UNL1     0.0623
     42 H         1.749122   7.22197   9.481222 H        1 UNL1     0.0654
     43 H         3.479425   6.249221   5.672128 H        1 UNL1     0.0654
     44 H         1.930711   4.394388   5.413219 H        1 UNL1     0.0623
     45 H         4.327262   7.605417   8.240822 H        1 UNL1     0.2921
     46 H         -4.158865   6.534657   3.992843 H        1 UNL1     0.2922
     47 H         -1.780534   2.701293   -1.29147 H        1 UNL1     0.2126
     48 H         2.383461   0.207176   0.426924 H        1 UNL1     0.2101
     49 H         -1.054438   0.361402   1.694543 H        1 UNL1     0.2100
     50 H         2.915605   2.439808   2.025049 H        1 UNL1     0.2102
@<TRIPOS>BOND
     1     1     2    1
     2     1     6    1
     3     2     3    1
     4     3     4    1
     5     3    29    1
     6     3    33    1
     7     4     5    1
     8     5     6    1
     9     5     7    1
    10     5    35    1
    11     7     8    1
    12     8     9   ar
    13     8    13   ar
    14     9    10   ar
    15     9    36    1
    16    10    11   ar
    17    10    26    1
    18    11    12   ar
    19    11    14    1
    20    12    13   ar
    21    12    17    1
    22    13    37    1
    23    14    15    1
    24    14    25    2
    25    15    16    1
    26    15    38    1
    27    15    39    1
    28    16    17    1
    29    16    18    1
    30    16    40    1
    31    18    19   ar
    32    18    23   ar
    33    19    20   ar
    34    19    41    1
    35    20    21   ar
    36    20    42    1
    37    21    22   ar
    38    21    24    1
    39    22    23   ar
    40    22    43    1
    41    23    44    1
    42    24    45    1
    43    26    46    1
    44    27    47    1
    45    28    48    1
    46    29    49    1
    47    30    50    1
    48     1    31    1
    49     1    27    1
    50     2    32    1
    51     2    28    1
    52     4    34    1
    53     4    30    1
