@<TRIPOS>MOLECULE
*****
 50 53 0 0 0
SMALL
GASTEIGER

@<TRIPOS>ATOM
     1 C         -0.260167   -1.260385   1.764808 C.3        1 UNL1     0.1889
     2 C         -0.550916   -0.905941   0.281644 C.3        1 UNL1     0.1342
     3 C         -2.038116   -0.711988   -0.051645 C.3        1 UNL1     0.1174
     4 C         -2.952124   -1.642597   0.7494 C.3        1 UNL1     0.1456
     5 C         -2.595555   -1.674714   2.246795 C.3        1 UNL1     0.2326
     6 O         -1.234229   -2.064187   2.41404 O.3        1 UNL1     -0.3076
     7 O         -2.9253   -0.457766   2.940789 O.3        1 UNL1     -0.4605
     8 C         -3.290028   -0.596489   4.267913 C.ar        1 UNL1     0.1310
     9 C         -4.176794   -1.555802   4.768577 C.ar        1 UNL1     0.0226
     10 C         -4.470106   -1.626682   6.135634 C.ar        1 UNL1     0.1343
     11 C         -3.864826   -0.754342   7.039238 C.ar        1 UNL1     0.1007
     12 C         -3.009134   0.234299   6.546121 C.ar        1 UNL1     0.1389
     13 C         -2.716413   0.307052   5.171184 C.ar        1 UNL1     0.0229
     14 C         -4.073891   -0.838686   8.50325 C.2        1 UNL1     0.1740
     15 C         -3.176846   0.027212   9.338163 C.3        1 UNL1     0.0520
     16 C         -3.024997   1.373847   8.644282 C.3        1 UNL1     0.1322
     17 O         -2.443655   1.211714   7.331717 O.3        1 UNL1     -0.4828
     18 C         -4.293851   2.2293   8.674836 C.ar        1 UNL1     -0.0067
     19 C         -4.391905   3.353178   7.828964 C.ar        1 UNL1     -0.0516
     20 C         -5.518231   4.183839   7.865789 C.ar        1 UNL1     -0.0198
     21 C         -6.547659   3.90618   8.747271 C.ar        1 UNL1     0.1169
     22 C         -6.49504   2.7878   9.569036 C.ar        1 UNL1     -0.0198
     23 C         -5.37705   1.946563   9.519308 C.ar        1 UNL1     -0.0516
     24 O         -7.611627   4.758931   8.781751 O.3        1 UNL1     -0.5068
     25 O         -4.865667   -1.616296   9.029462 O.2        1 UNL1     -0.2917
     26 O         -5.344226   -2.584793   6.559336 O.3        1 UNL1     -0.5058
     27 O         0.103135   -0.138407   2.553456 O.3        1 UNL1     -0.3648
     28 O         -0.062208   -1.976679   -0.547447 O.3        1 UNL1     -0.3841
     29 O         -2.408816   0.663156   0.065374 O.3        1 UNL1     -0.3863
     30 O         -2.847395   -2.981606   0.218573 O.3        1 UNL1     -0.3829
     31 H         0.634951   -1.891923   1.765839 H        1 UNL1     0.0937
     32 H         0.0   0.0   0.0 H        1 UNL1     0.0671
     33 H         -2.179636   -0.963095   -1.112134 H        1 UNL1     0.0649
     34 H         -3.996433   -1.332365   0.632883 H        1 UNL1     0.0683
     35 H         -3.211867   -2.488975   2.648066 H        1 UNL1     0.1085
     36 H         -4.636677   -2.297995   4.125321 H        1 UNL1     0.0691
     37 H         -2.047877   1.086703   4.81244 H        1 UNL1     0.0691
     38 H         -2.211713   -0.483076   9.425635 H        1 UNL1     0.0385
     39 H         -3.604528   0.124496   10.341857 H        1 UNL1     0.0385
     40 H         -2.275372   1.945674   9.207838 H        1 UNL1     0.0789
     41 H         -3.593283   3.597773   7.134683 H        1 UNL1     0.0623
     42 H         -5.57674   5.054244   7.216957 H        1 UNL1     0.0654
     43 H         -7.30231   2.552595   10.25234 H        1 UNL1     0.0654
     44 H         -5.374146   1.075776   10.16782 H        1 UNL1     0.0623
     45 H         -7.303296   5.621124   9.104662 H        1 UNL1     0.2921
     46 H         -4.925215   -3.122416   7.249844 H        1 UNL1     0.2922
     47 H         0.851857   0.32453   2.152253 H        1 UNL1     0.2126
     48 H         0.910869   -1.972633   -0.464763 H        1 UNL1     0.2101
     49 H         -2.150907   1.143922   -0.73721 H        1 UNL1     0.2100
     50 H         -3.235171   -2.980481   -0.681061 H        1 UNL1     0.2102
@<TRIPOS>BOND
     1     1     2    1
     2     1     6    1
     3     2     3    1
     4     3     4    1
     5     3    29    1
     6     3    33    1
     7     4     5    1
     8     5     6    1
     9     5     7    1
    10     5    35    1
    11     7     8    1
    12     8     9   ar
    13     8    13   ar
    14     9    10   ar
    15     9    36    1
    16    10    11   ar
    17    10    26    1
    18    11    12   ar
    19    11    14    1
    20    12    13   ar
    21    12    17    1
    22    13    37    1
    23    14    15    1
    24    14    25    2
    25    15    16    1
    26    15    38    1
    27    15    39    1
    28    16    17    1
    29    16    18    1
    30    16    40    1
    31    18    19   ar
    32    18    23   ar
    33    19    20   ar
    34    19    41    1
    35    20    21   ar
    36    20    42    1
    37    21    22   ar
    38    21    24    1
    39    22    23   ar
    40    22    43    1
    41    23    44    1
    42    24    45    1
    43    26    46    1
    44    27    47    1
    45    28    48    1
    46    29    49    1
    47    30    50    1
    48     1    31    1
    49     1    27    1
    50     2    32    1
    51     2    28    1
    52     4    34    1
    53     4    30    1
