@<TRIPOS>MOLECULE
*****
 50 53 0 0 0
SMALL
GASTEIGER

@<TRIPOS>ATOM
     1 C         -0.384444   -1.423553   1.611367 C.3        1 UNL1     0.1889
     2 C         -0.427615   -1.003443   0.117518 C.3        1 UNL1     0.1342
     3 C         -1.827248   -1.028997   -0.5156 C.3        1 UNL1     0.1174
     4 C         -2.705178   -2.15774   0.030564 C.3        1 UNL1     0.1456
     5 C         -2.658395   -2.251299   1.566605 C.3        1 UNL1     0.2326
     6 O         -1.311963   -2.425231   2.002194 O.3        1 UNL1     -0.3076
     7 O         -3.331105   -1.16431   2.227844 O.3        1 UNL1     -0.4605
     8 C         -3.925969   -1.46689   3.4395 C.ar        1 UNL1     0.1310
     9 C         -4.720487   -2.589926   3.69412 C.ar        1 UNL1     0.0226
     10 C         -5.265879   -2.817957   4.963156 C.ar        1 UNL1     0.1343
     11 C         -5.010093   -1.940035   6.015614 C.ar        1 UNL1     0.1007
     12 C         -4.252021   -0.79356   5.763217 C.ar        1 UNL1     0.1389
     13 C         -3.705935   -0.563126   4.486455 C.ar        1 UNL1     0.0229
     14 C         -5.491365   -2.176283   7.396453 C.2        1 UNL1     0.1740
     15 C         -4.939142   -1.253867   8.443234 C.3        1 UNL1     0.0520
     16 C         -4.880383   0.152667   7.863435 C.3        1 UNL1     0.1322
     17 O         -4.028682   0.191387   6.69717 O.3        1 UNL1     -0.4828
     18 C         -6.255229   0.795909   7.666556 C.ar        1 UNL1     -0.0067
     19 C         -6.557053   1.423418   6.440445 C.ar        1 UNL1     -0.0516
     20 C         -7.787159   2.062395   6.244202 C.ar        1 UNL1     -0.0198
     21 C         -8.718874   2.087128   7.266514 C.ar        1 UNL1     0.1169
     22 C         -8.464001   1.449226   8.473561 C.ar        1 UNL1     -0.0198
     23 C         -7.241293   0.794298   8.663587 C.ar        1 UNL1     -0.0516
     24 O         -9.890632   2.751489   7.052022 O.3        1 UNL1     -0.5068
     25 O         -6.229967   -3.107837   7.704929 O.2        1 UNL1     -0.2917
     26 O         -6.032955   -3.931498   5.145379 O.3        1 UNL1     -0.5058
     27 O         -0.391855   -0.324294   2.50823 O.3        1 UNL1     -0.3648
     28 O         0.399694   -1.909839   -0.635285 O.3        1 UNL1     -0.3841
     29 O         -2.450832   0.253185   -0.419241 O.3        1 UNL1     -0.3863
     30 O         -2.260631   -3.414623   -0.524696 O.3        1 UNL1     -0.3829
     31 H         0.589181   -1.898342   1.774792 H        1 UNL1     0.0937
     32 H         0.0   0.0   0.0 H        1 UNL1     0.0671
     33 H         -1.705079   -1.21387   -1.59199 H        1 UNL1     0.0649
     34 H         -3.742463   -2.013992   -0.291581 H        1 UNL1     0.0683
     35 H         -3.189356   -3.184886   1.791045 H        1 UNL1     0.1085
     36 H         -4.910131   -3.338701   2.932876 H        1 UNL1     0.0691
     37 H         -3.120209   0.337537   4.315501 H        1 UNL1     0.0691
     38 H         -3.939267   -1.614057   8.707886 H        1 UNL1     0.0385
     39 H         -5.569653   -1.307149   9.337323 H        1 UNL1     0.0385
     40 H         -4.366415   0.78515   8.59986 H        1 UNL1     0.0789
     41 H         -5.838956   1.425809   5.625595 H        1 UNL1     0.0623
     42 H         -8.003356   2.552959   5.29836 H        1 UNL1     0.0654
     43 H         -9.192561   1.449546   9.275502 H        1 UNL1     0.0654
     44 H         -7.080014   0.297329   9.615352 H        1 UNL1     0.0623
     45 H         -9.688261   3.688716   6.899154 H        1 UNL1     0.2921
     46 H         -5.663619   -4.46417   5.867364 H        1 UNL1     0.2922
     47 H         0.328691   0.285475   2.296441 H        1 UNL1     0.2126
     48 H         1.313895   -1.785607   -0.315073 H        1 UNL1     0.2101
     49 H         -2.0026   0.883075   -1.005858 H        1 UNL1     0.2100
     50 H         -2.432022   -3.395654   -1.489049 H        1 UNL1     0.2102
@<TRIPOS>BOND
     1     1     2    1
     2     1     6    1
     3     2     3    1
     4     3     4    1
     5     3    29    1
     6     3    33    1
     7     4     5    1
     8     5     6    1
     9     5     7    1
    10     5    35    1
    11     7     8    1
    12     8     9   ar
    13     8    13   ar
    14     9    10   ar
    15     9    36    1
    16    10    11   ar
    17    10    26    1
    18    11    12   ar
    19    11    14    1
    20    12    13   ar
    21    12    17    1
    22    13    37    1
    23    14    15    1
    24    14    25    2
    25    15    16    1
    26    15    38    1
    27    15    39    1
    28    16    17    1
    29    16    18    1
    30    16    40    1
    31    18    19   ar
    32    18    23   ar
    33    19    20   ar
    34    19    41    1
    35    20    21   ar
    36    20    42    1
    37    21    22   ar
    38    21    24    1
    39    22    23   ar
    40    22    43    1
    41    23    44    1
    42    24    45    1
    43    26    46    1
    44    27    47    1
    45    28    48    1
    46    29    49    1
    47    30    50    1
    48     1    31    1
    49     1    27    1
    50     2    32    1
    51     2    28    1
    52     4    34    1
    53     4    30    1
