@<TRIPOS>MOLECULE
*****
 50 53 0 0 0
SMALL
GASTEIGER

@<TRIPOS>ATOM
     1 C         -1.182599   -1.363371   1.230237 C.3        1 UNL1     0.1889
     2 C         -0.142488   -0.222886   1.064697 C.3        1 UNL1     0.1342
     3 C         1.225351   -0.504537   1.705131 C.3        1 UNL1     0.1174
     4 C         1.119416   -1.31831   2.997287 C.3        1 UNL1     0.1456
     5 C         0.178765   -2.529022   2.856878 C.3        1 UNL1     0.2326
     6 O         -1.115375   -2.094006   2.445987 O.3        1 UNL1     -0.3076
     7 O         0.713171   -3.576992   2.027728 O.3        1 UNL1     -0.4605
     8 C         0.343187   -4.866154   2.366406 C.ar        1 UNL1     0.1310
     9 C         0.631761   -5.499681   3.579942 C.ar        1 UNL1     0.0226
     10 C         0.19732   -6.805705   3.835805 C.ar        1 UNL1     0.1343
     11 C         -0.557424   -7.501957   2.892706 C.ar        1 UNL1     0.1007
     12 C         -0.816857   -6.894965   1.661024 C.ar        1 UNL1     0.1389
     13 C         -0.377656   -5.582738   1.402969 C.ar        1 UNL1     0.0229
     14 C         -1.113219   -8.851884   3.143588 C.2        1 UNL1     0.1740
     15 C         -2.082148   -9.356564   2.114985 C.3        1 UNL1     0.0520
     16 C         -1.569317   -8.963749   0.736341 C.3        1 UNL1     0.1322
     17 O         -1.456887   -7.528092   0.620938 O.3        1 UNL1     -0.4828
     18 C         -0.32107   -9.734878   0.300493 C.ar        1 UNL1     -0.0067
     19 C         0.953208   -9.176618   0.53022 C.ar        1 UNL1     -0.0516
     20 C         2.113002   -9.833338   0.10178 C.ar        1 UNL1     -0.0198
     21 C         2.011727   -11.042588   -0.562513 C.ar        1 UNL1     0.1169
     22 C         0.772899   -11.633745   -0.773885 C.ar        1 UNL1     -0.0198
     23 C         -0.385949   -10.986144   -0.329204 C.ar        1 UNL1     -0.0516
     24 O         3.160685   -11.634433   -0.99842 O.3        1 UNL1     -0.5068
     25 O         -0.876374   -9.502794   4.157839 O.2        1 UNL1     -0.2917
     26 O         0.512988   -7.366858   5.038737 O.3        1 UNL1     -0.5058
     27 O         -1.261313   -2.22439   0.105409 O.3        1 UNL1     -0.3648
     28 O         -0.667866   0.966751   1.682312 O.3        1 UNL1     -0.3841
     29 O         2.119435   -1.088105   0.755293 O.3        1 UNL1     -0.3863
     30 O         0.625493   -0.466971   4.054147 O.3        1 UNL1     -0.3829
     31 H         -2.167193   -0.885021   1.273082 H        1 UNL1     0.0937
     32 H         0.0   0.0   0.0 H        1 UNL1     0.0671
     33 H         1.675083   0.461495   1.973911 H        1 UNL1     0.0649
     34 H         2.112567   -1.665495   3.30309 H        1 UNL1     0.0683
     35 H         0.077871   -2.905938   3.882369 H        1 UNL1     0.1085
     36 H         1.166254   -4.991904   4.375303 H        1 UNL1     0.0691
     37 H         -0.591635   -5.133082   0.435749 H        1 UNL1     0.0691
     38 H         -3.053961   -8.895428   2.32104 H        1 UNL1     0.0385
     39 H         -2.188352   -10.441318   2.223649 H        1 UNL1     0.0385
     40 H         -2.347798   -9.237333   0.011332 H        1 UNL1     0.0789
     41 H         1.058919   -8.224129   1.041338 H        1 UNL1     0.0623
     42 H         3.089169   -9.386864   0.274322 H        1 UNL1     0.0654
     43 H         0.683102   -12.587683   -1.279699 H        1 UNL1     0.0654
     44 H         -1.336349   -11.481895   -0.501877 H        1 UNL1     0.0623
     45 H         3.718767   -10.954762   -1.409891 H        1 UNL1     0.2921
     46 H         0.074452   -8.228657   5.118738 H        1 UNL1     0.2922
     47 H         -1.388076   -1.708383   -0.703002 H        1 UNL1     0.2126
     48 H         -1.382694   1.291153   1.101351 H        1 UNL1     0.2101
     49 H         1.887185   -2.019465   0.612386 H        1 UNL1     0.2100
     50 H         1.313553   0.202839   4.248162 H        1 UNL1     0.2102
@<TRIPOS>BOND
     1     1     2    1
     2     1     6    1
     3     2     3    1
     4     3     4    1
     5     3    29    1
     6     3    33    1
     7     4     5    1
     8     5     6    1
     9     5     7    1
    10     5    35    1
    11     7     8    1
    12     8     9   ar
    13     8    13   ar
    14     9    10   ar
    15     9    36    1
    16    10    11   ar
    17    10    26    1
    18    11    12   ar
    19    11    14    1
    20    12    13   ar
    21    12    17    1
    22    13    37    1
    23    14    15    1
    24    14    25    2
    25    15    16    1
    26    15    38    1
    27    15    39    1
    28    16    17    1
    29    16    18    1
    30    16    40    1
    31    18    19   ar
    32    18    23   ar
    33    19    20   ar
    34    19    41    1
    35    20    21   ar
    36    20    42    1
    37    21    22   ar
    38    21    24    1
    39    22    23   ar
    40    22    43    1
    41    23    44    1
    42    24    45    1
    43    26    46    1
    44    27    47    1
    45    28    48    1
    46    29    49    1
    47    30    50    1
    48     1    31    1
    49     1    27    1
    50     2    32    1
    51     2    28    1
    52     4    34    1
    53     4    30    1
