@<TRIPOS>MOLECULE
*****
 50 53 0 0 0
SMALL
GASTEIGER

@<TRIPOS>ATOM
     1 C         -0.336799   -1.331095   1.698692 C.3        1 UNL1     0.1889
     2 C         -0.464844   -0.974763   0.193178 C.3        1 UNL1     0.1342
     3 C         -1.905067   -0.9579   -0.341554 C.3        1 UNL1     0.1174
     4 C         -2.794449   -2.01654   0.315255 C.3        1 UNL1     0.1456
     5 C         -2.644555   -2.045382   1.847268 C.3        1 UNL1     0.2326
     6 O         -1.28053   -2.267232   2.198107 O.3        1 UNL1     -0.3076
     7 O         -3.217626   -0.898402   2.500985 O.3        1 UNL1     -0.4605
     8 C         -3.729433   -1.115398   3.767671 C.ar        1 UNL1     0.1310
     9 C         -4.547293   -2.188239   4.138371 C.ar        1 UNL1     0.0226
     10 C         -5.002354   -2.330296   5.45467 C.ar        1 UNL1     0.1343
     11 C         -4.630694   -1.415025   6.438533 C.ar        1 UNL1     0.1007
     12 C         -3.848012   -0.317059   6.071567 C.ar        1 UNL1     0.1389
     13 C         -3.392755   -0.173007   4.747399 C.ar        1 UNL1     0.0229
     14 C         -5.013617   -1.562762   7.861803 C.2        1 UNL1     0.1740
     15 C         -4.345263   -0.616615   8.815564 C.3        1 UNL1     0.0520
     16 C         -4.273775   0.756336   8.161459 C.3        1 UNL1     0.1322
     17 O         -3.51341   0.70075   6.934339 O.3        1 UNL1     -0.4828
     18 C         -5.632222   1.450153   8.035112 C.ar        1 UNL1     -0.0067
     19 C         -6.00779   2.017706   6.800185 C.ar        1 UNL1     -0.0516
     20 C         -7.22224   2.700571   6.663187 C.ar        1 UNL1     -0.0198
     21 C         -8.064612   2.828825   7.753044 C.ar        1 UNL1     0.1169
     22 C         -7.737799   2.251971   8.973401 C.ar        1 UNL1     -0.0198
     23 C         -6.531891   1.553178   9.105802 C.ar        1 UNL1     -0.0516
     24 O         -9.221414   3.533212   7.591646 O.3        1 UNL1     -0.5068
     25 O         -5.763799   -2.444441   8.272113 O.2        1 UNL1     -0.2917
     26 O         -5.798055   -3.398375   5.750732 O.3        1 UNL1     -0.5058
     27 O         -0.22985   -0.19485   2.541483 O.3        1 UNL1     -0.3648
     28 O         0.264314   -1.953256   -0.57075 O.3        1 UNL1     -0.3841
     29 O         -2.459638   0.356807   -0.263276 O.3        1 UNL1     -0.3863
     30 O         -2.449257   -3.317033   -0.209389 O.3        1 UNL1     -0.3829
     31 H         0.622582   -1.846364   1.817707 H        1 UNL1     0.0937
     32 H         0.0   0.0   0.0 H        1 UNL1     0.0671
     33 H         -1.867432   -1.195314   -1.413906 H        1 UNL1     0.0649
     34 H         -3.843889   -1.835313   0.057899 H        1 UNL1     0.0683
     35 H         -3.201613   -2.940629   2.150746 H        1 UNL1     0.1085
     36 H         -4.825384   -2.963576   3.432937 H        1 UNL1     0.0691
     37 H         -2.785557   0.6913   4.487061 H        1 UNL1     0.0691
     38 H         -3.343572   -1.00797   9.022887 H        1 UNL1     0.0385
     39 H         -4.906804   -0.59855   9.755843 H        1 UNL1     0.0385
     40 H         -3.679256   1.399942   8.823908 H        1 UNL1     0.0789
     41 H         -5.35988   1.938664   5.932074 H        1 UNL1     0.0623
     42 H         -7.495127   3.144092   5.708811 H        1 UNL1     0.0654
     43 H         -8.397078   2.333444   9.829335 H        1 UNL1     0.0654
     44 H         -6.313466   1.106176   10.070854 H        1 UNL1     0.0623
     45 H         -8.993955   4.443026   7.340213 H        1 UNL1     0.2921
     46 H         -5.396393   -3.911638   6.469509 H        1 UNL1     0.2922
     47 H         0.512981   0.35921   2.263851 H        1 UNL1     0.2126
     48 H         1.199855   -1.878406   -0.300763 H        1 UNL1     0.2101
     49 H         -2.018894   0.939465   -0.902062 H        1 UNL1     0.2100
     50 H         -2.686739   -3.331512   -1.159708 H        1 UNL1     0.2102
@<TRIPOS>BOND
     1     1     2    1
     2     1     6    1
     3     2     3    1
     4     3     4    1
     5     3    29    1
     6     3    33    1
     7     4     5    1
     8     5     6    1
     9     5     7    1
    10     5    35    1
    11     7     8    1
    12     8     9   ar
    13     8    13   ar
    14     9    10   ar
    15     9    36    1
    16    10    11   ar
    17    10    26    1
    18    11    12   ar
    19    11    14    1
    20    12    13   ar
    21    12    17    1
    22    13    37    1
    23    14    15    1
    24    14    25    2
    25    15    16    1
    26    15    38    1
    27    15    39    1
    28    16    17    1
    29    16    18    1
    30    16    40    1
    31    18    19   ar
    32    18    23   ar
    33    19    20   ar
    34    19    41    1
    35    20    21   ar
    36    20    42    1
    37    21    22   ar
    38    21    24    1
    39    22    23   ar
    40    22    43    1
    41    23    44    1
    42    24    45    1
    43    26    46    1
    44    27    47    1
    45    28    48    1
    46    29    49    1
    47    30    50    1
    48     1    31    1
    49     1    27    1
    50     2    32    1
    51     2    28    1
    52     4    34    1
    53     4    30    1
