@<TRIPOS>MOLECULE
*****
 50 53 0 0 0
SMALL
GASTEIGER

@<TRIPOS>ATOM
     1 C         -1.573183   -0.611134   1.386511 C.3        1 UNL1     0.1889
     2 C         -0.66629   0.467603   0.735504 C.3        1 UNL1     0.1342
     3 C         0.176725   1.281404   1.729244 C.3        1 UNL1     0.1174
     4 C         -0.544517   1.52806   3.056681 C.3        1 UNL1     0.1456
     5 C         -1.202682   0.253767   3.616465 C.3        1 UNL1     0.2326
     6 O         -2.111878   -0.284462   2.659103 O.3        1 UNL1     -0.3076
     7 O         -0.25541   -0.714028   4.103669 O.3        1 UNL1     -0.4605
     8 C         0.961604   -0.211071   4.527271 C.ar        1 UNL1     0.1310
     9 C         1.878193   0.476128   3.724199 C.ar        1 UNL1     0.0226
     10 C         3.080077   0.962999   4.251772 C.ar        1 UNL1     0.1343
     11 C         3.38401   0.79508   5.602056 C.ar        1 UNL1     0.1007
     12 C         2.495438   0.074751   6.40477 C.ar        1 UNL1     0.1389
     13 C         1.288239   -0.416992   5.87346 C.ar        1 UNL1     0.0229
     14 C         4.599946   1.361595   6.230318 C.2        1 UNL1     0.1740
     15 C         4.656392   1.277812   7.72743 C.3        1 UNL1     0.0520
     16 C         4.112408   -0.07839   8.154928 C.3        1 UNL1     0.1322
     17 O         2.744619   -0.242551   7.719873 O.3        1 UNL1     -0.4828
     18 C         5.033928   -1.24967   7.806174 C.ar        1 UNL1     -0.0067
     19 C         6.323137   -1.309471   8.374133 C.ar        1 UNL1     -0.0516
     20 C         7.20823   -2.34134   8.039739 C.ar        1 UNL1     -0.0198
     21 C         6.819588   -3.313132   7.135081 C.ar        1 UNL1     0.1169
     22 C         5.544617   -3.299917   6.584523 C.ar        1 UNL1     -0.0198
     23 C         4.652786   -2.278464   6.932842 C.ar        1 UNL1     -0.0516
     24 O         7.721881   -4.281211   6.804796 O.3        1 UNL1     -0.5068
     25 O         5.480833   1.939178   5.598717 O.2        1 UNL1     -0.2917
     26 O         3.931462   1.623752   3.415031 O.3        1 UNL1     -0.5058
     27 O         -1.002676   -1.910064   1.377037 O.3        1 UNL1     -0.3648
     28 O         -1.503031   1.396868   0.022034 O.3        1 UNL1     -0.3841
     29 O         1.466915   0.69164   1.901641 O.3        1 UNL1     -0.3863
     30 O         -1.565628   2.530593   2.861873 O.3        1 UNL1     -0.3829
     31 H         -2.459347   -0.701177   0.748792 H        1 UNL1     0.0937
     32 H         0.0   0.0   0.0 H        1 UNL1     0.0671
     33 H         0.364081   2.267319   1.281373 H        1 UNL1     0.0649
     34 H         0.158955   1.926501   3.796122 H        1 UNL1     0.0683
     35 H         -1.804449   0.615393   4.459662 H        1 UNL1     0.1085
     36 H         1.675065   0.687838   2.68015 H        1 UNL1     0.0691
     37 H         0.613944   -0.975572   6.519067 H        1 UNL1     0.0691
     38 H         4.04438   2.092959   8.128057 H        1 UNL1     0.0385
     39 H         5.689576   1.432049   8.056857 H        1 UNL1     0.0385
     40 H         4.052782   -0.07214   9.251708 H        1 UNL1     0.0789
     41 H         6.655341   -0.553595   9.079783 H        1 UNL1     0.0623
     42 H         8.203935   -2.369832   8.475366 H        1 UNL1     0.0654
     43 H         5.224663   -4.064392   5.886584 H        1 UNL1     0.0654
     44 H         3.661049   -2.305165   6.491719 H        1 UNL1     0.0623
     45 H         8.610897   -3.960763   7.027686 H        1 UNL1     0.2921
     46 H         4.261308   2.423387   3.854572 H        1 UNL1     0.2922
     47 H         -0.719677   -2.144933   0.48227 H        1 UNL1     0.2126
     48 H         -1.824527   0.930089   -0.773258 H        1 UNL1     0.2101
     49 H         1.396548   -0.098538   2.460623 H        1 UNL1     0.2100
     50 H         -1.11993   3.381456   2.669261 H        1 UNL1     0.2102
@<TRIPOS>BOND
     1     1     2    1
     2     1     6    1
     3     2     3    1
     4     3     4    1
     5     3    29    1
     6     3    33    1
     7     4     5    1
     8     5     6    1
     9     5     7    1
    10     5    35    1
    11     7     8    1
    12     8     9   ar
    13     8    13   ar
    14     9    10   ar
    15     9    36    1
    16    10    11   ar
    17    10    26    1
    18    11    12   ar
    19    11    14    1
    20    12    13   ar
    21    12    17    1
    22    13    37    1
    23    14    15    1
    24    14    25    2
    25    15    16    1
    26    15    38    1
    27    15    39    1
    28    16    17    1
    29    16    18    1
    30    16    40    1
    31    18    19   ar
    32    18    23   ar
    33    19    20   ar
    34    19    41    1
    35    20    21   ar
    36    20    42    1
    37    21    22   ar
    38    21    24    1
    39    22    23   ar
    40    22    43    1
    41    23    44    1
    42    24    45    1
    43    26    46    1
    44    27    47    1
    45    28    48    1
    46    29    49    1
    47    30    50    1
    48     1    31    1
    49     1    27    1
    50     2    32    1
    51     2    28    1
    52     4    34    1
    53     4    30    1
