@<TRIPOS>MOLECULE
*****
 50 53 0 0 0
SMALL
GASTEIGER

@<TRIPOS>ATOM
     1 C         -0.345514   -1.336257   1.69288 C.3        1 UNL1     0.1889
     2 C         -0.469121   -0.97363   0.188498 C.3        1 UNL1     0.1342
     3 C         -1.908192   -0.948946   -0.349024 C.3        1 UNL1     0.1174
     4 C         -2.80311   -2.006534   0.301935 C.3        1 UNL1     0.1456
     5 C         -2.656398   -2.041865   1.83412 C.3        1 UNL1     0.2326
     6 O         -1.293976   -2.270521   2.186809 O.3        1 UNL1     -0.3076
     7 O         -3.226188   -0.895121   2.491111 O.3        1 UNL1     -0.4605
     8 C         -3.742243   -1.115138   3.755551 C.ar        1 UNL1     0.1310
     9 C         -4.567133   -2.184988   4.119251 C.ar        1 UNL1     0.0226
     10 C         -5.026129   -2.330628   5.433791 C.ar        1 UNL1     0.1343
     11 C         -4.651553   -1.422162   6.422842 C.ar        1 UNL1     0.1007
     12 C         -3.861705   -0.327003   6.062912 C.ar        1 UNL1     0.1389
     13 C         -3.402483   -0.179332   4.740513 C.ar        1 UNL1     0.0229
     14 C         -5.0387   -1.574403   7.844494 C.2        1 UNL1     0.1740
     15 C         -4.367188   -0.636628   8.804286 C.3        1 UNL1     0.0520
     16 C         -4.286257   0.738958   8.156852 C.3        1 UNL1     0.1322
     17 O         -3.523311   0.684782   6.931271 O.3        1 UNL1     -0.4828
     18 C         -5.64039   1.441174   8.030597 C.ar        1 UNL1     -0.0067
     19 C         -6.009755   2.016697   6.797489 C.ar        1 UNL1     -0.0516
     20 C         -7.219933   2.707182   6.66087 C.ar        1 UNL1     -0.0198
     21 C         -8.06414   2.835143   7.74934 C.ar        1 UNL1     0.1169
     22 C         -7.743548   2.250668   8.967719 C.ar        1 UNL1     -0.0198
     23 C         -6.541994   1.544326   9.099646 C.ar        1 UNL1     -0.0516
     24 O         -9.216489   3.546932   7.588559 O.3        1 UNL1     -0.5068
     25 O         -5.794909   -2.453672   8.248867 O.2        1 UNL1     -0.2917
     26 O         -5.828655   -3.395492   5.722928 O.3        1 UNL1     -0.5058
     27 O         -0.235712   -0.203697   2.540252 O.3        1 UNL1     -0.3648
     28 O         0.257649   -1.95209   -0.577744 O.3        1 UNL1     -0.3841
     29 O         -2.457661   0.367661   -0.266783 O.3        1 UNL1     -0.3863
     30 O         -2.462068   -3.306371   -0.227029 O.3        1 UNL1     -0.3829
     31 H         0.611561   -1.855816   1.811813 H        1 UNL1     0.0937
     32 H         0.0   0.0   0.0 H        1 UNL1     0.0671
     33 H         -1.86936   -1.182384   -1.422206 H        1 UNL1     0.0649
     34 H         -3.8513   -1.820119   0.043195 H        1 UNL1     0.0683
     35 H         -3.217636   -2.936034   2.13304 H        1 UNL1     0.1085
     36 H         -4.847998   -2.955376   3.409506 H        1 UNL1     0.0691
     37 H         -2.789712   0.682684   4.485692 H        1 UNL1     0.0691
     38 H         -3.368257   -1.034717   9.012108 H        1 UNL1     0.0385
     39 H         -4.930848   -0.619764   9.743318 H        1 UNL1     0.0385
     40 H         -3.689625   1.376   8.823731 H        1 UNL1     0.0789
     41 H         -5.36025   1.93802   5.930539 H        1 UNL1     0.0623
     42 H         -7.487997   3.156762   5.707964 H        1 UNL1     0.0654
     43 H         -8.40438   2.331898   9.822478 H        1 UNL1     0.0654
     44 H         -6.328435   1.091528   10.063084 H        1 UNL1     0.0623
     45 H         -8.983145   4.457317   7.344698 H        1 UNL1     0.2921
     46 H         -5.431658   -3.914443   6.440211 H        1 UNL1     0.2922
     47 H         0.509039   0.349163   2.265386 H        1 UNL1     0.2126
     48 H         1.193388   -1.880077   -0.307674 H        1 UNL1     0.2101
     49 H         -2.019038   0.948975   -0.908248 H        1 UNL1     0.2100
     50 H         -2.697704   -3.316246   -1.177866 H        1 UNL1     0.2102
@<TRIPOS>BOND
     1     1     2    1
     2     1     6    1
     3     2     3    1
     4     3     4    1
     5     3    29    1
     6     3    33    1
     7     4     5    1
     8     5     6    1
     9     5     7    1
    10     5    35    1
    11     7     8    1
    12     8     9   ar
    13     8    13   ar
    14     9    10   ar
    15     9    36    1
    16    10    11   ar
    17    10    26    1
    18    11    12   ar
    19    11    14    1
    20    12    13   ar
    21    12    17    1
    22    13    37    1
    23    14    15    1
    24    14    25    2
    25    15    16    1
    26    15    38    1
    27    15    39    1
    28    16    17    1
    29    16    18    1
    30    16    40    1
    31    18    19   ar
    32    18    23   ar
    33    19    20   ar
    34    19    41    1
    35    20    21   ar
    36    20    42    1
    37    21    22   ar
    38    21    24    1
    39    22    23   ar
    40    22    43    1
    41    23    44    1
    42    24    45    1
    43    26    46    1
    44    27    47    1
    45    28    48    1
    46    29    49    1
    47    30    50    1
    48     1    31    1
    49     1    27    1
    50     2    32    1
    51     2    28    1
    52     4    34    1
    53     4    30    1
