@<TRIPOS>MOLECULE
*****
 50 53 0 0 0
SMALL
GASTEIGER

@<TRIPOS>ATOM
     1 C         -0.704094   -1.104329   1.748003 C.3        1 UNL1     0.1889
     2 C         -0.564032   -0.916457   0.213393 C.3        1 UNL1     0.1342
     3 C         -1.895689   -0.874906   -0.551739 C.3        1 UNL1     0.1174
     4 C         -2.957532   -1.79577   0.054574 C.3        1 UNL1     0.1456
     5 C         -3.054786   -1.65718   1.584834 C.3        1 UNL1     0.2326
     6 O         -1.784977   -1.918567   2.178241 O.3        1 UNL1     -0.3076
     7 O         -3.63306   -0.410362   2.011876 O.3        1 UNL1     -0.4605
     8 C         -4.36377   -0.451557   3.185713 C.ar        1 UNL1     0.1310
     9 C         -5.310074   -1.427173   3.517348 C.ar        1 UNL1     0.0226
     10 C         -5.987653   -1.391538   4.741897 C.ar        1 UNL1     0.1343
     11 C         -5.717759   -0.391782   5.675431 C.ar        1 UNL1     0.1007
     12 C         -4.804779   0.611157   5.338733 C.ar        1 UNL1     0.1389
     13 C         -4.125546   0.576587   4.106305 C.ar        1 UNL1     0.0229
     14 C         -6.342683   -0.353562   7.017877 C.2        1 UNL1     0.1740
     15 C         -5.773764   0.656706   7.970368 C.3        1 UNL1     0.0520
     16 C         -5.491486   1.939377   7.200282 C.3        1 UNL1     0.1322
     17 O         -4.543438   1.700803   6.13663 O.3        1 UNL1     -0.4828
     18 C         -6.753958   2.689297   6.768415 C.ar        1 UNL1     -0.0067
     19 C         -6.654728   3.716483   5.807553 C.ar        1 UNL1     -0.0516
     20 C         -7.781741   4.453833   5.4253 C.ar        1 UNL1     -0.0198
     21 C         -9.0095   4.179226   6.00065 C.ar        1 UNL1     0.1169
     22 C         -9.145308   3.151566   6.924939 C.ar        1 UNL1     -0.0198
     23 C         -8.021947   2.40183   7.293735 C.ar        1 UNL1     -0.0516
     24 O         -10.077378   4.943277   5.63151 O.3        1 UNL1     -0.5068
     25 O         -7.214731   -1.138838   7.380313 O.2        1 UNL1     -0.2917
     26 O         -6.899366   -2.372236   5.003802 O.3        1 UNL1     -0.5058
     27 O         -0.643786   0.112828   2.474417 O.3        1 UNL1     -0.3648
     28 O         0.198449   -2.018238   -0.313301 O.3        1 UNL1     -0.3841
     29 O         -2.351591   0.470942   -0.703335 O.3        1 UNL1     -0.3863
     30 O         -2.635949   -3.166303   -0.267785 O.3        1 UNL1     -0.3829
     31 H         0.181276   -1.659062   2.077348 H        1 UNL1     0.0937
     32 H         0.0   0.0   -0.0 H        1 UNL1     0.0671
     33 H         -1.707353   -1.235885   -1.572495 H        1 UNL1     0.0649
     34 H         -3.935655   -1.582768   -0.390743 H        1 UNL1     0.0683
     35 H         -3.720856   -2.47658   1.882847 H        1 UNL1     0.1085
     36 H         -5.523928   -2.26146   2.858294 H        1 UNL1     0.0691
     37 H         -3.420388   1.369864   3.867651 H        1 UNL1     0.0691
     38 H         -4.85287   0.236092   8.388179 H        1 UNL1     0.0385
     39 H         -6.48131   0.814002   8.791596 H        1 UNL1     0.0385
     40 H         -4.969244   2.620314   7.885926 H        1 UNL1     0.0789
     41 H         -5.700617   3.957496   5.347948 H        1 UNL1     0.0623
     42 H         -7.690088   5.251347   4.6921 H        1 UNL1     0.0654
     43 H         -10.104917   2.918137   7.370554 H        1 UNL1     0.0654
     44 H         -8.166577   1.599447   8.010749 H        1 UNL1     0.0623
     45 H         -9.920147   5.854129   5.928735 H        1 UNL1     0.2921
     46 H         -6.675433   -2.806669   5.841976 H        1 UNL1     0.2922
     47 H         0.165966   0.594254   2.254438 H        1 UNL1     0.2126
     48 H         1.122933   -1.878816   -0.031124 H        1 UNL1     0.2101
     49 H         -1.776348   0.946331   -1.323734 H        1 UNL1     0.2100
     50 H         -2.742319   -3.281523   -1.234802 H        1 UNL1     0.2102
@<TRIPOS>BOND
     1     1     2    1
     2     1     6    1
     3     2     3    1
     4     3     4    1
     5     3    29    1
     6     3    33    1
     7     4     5    1
     8     5     6    1
     9     5     7    1
    10     5    35    1
    11     7     8    1
    12     8     9   ar
    13     8    13   ar
    14     9    10   ar
    15     9    36    1
    16    10    11   ar
    17    10    26    1
    18    11    12   ar
    19    11    14    1
    20    12    13   ar
    21    12    17    1
    22    13    37    1
    23    14    15    1
    24    14    25    2
    25    15    16    1
    26    15    38    1
    27    15    39    1
    28    16    17    1
    29    16    18    1
    30    16    40    1
    31    18    19   ar
    32    18    23   ar
    33    19    20   ar
    34    19    41    1
    35    20    21   ar
    36    20    42    1
    37    21    22   ar
    38    21    24    1
    39    22    23   ar
    40    22    43    1
    41    23    44    1
    42    24    45    1
    43    26    46    1
    44    27    47    1
    45    28    48    1
    46    29    49    1
    47    30    50    1
    48     1    31    1
    49     1    27    1
    50     2    32    1
    51     2    28    1
    52     4    34    1
    53     4    30    1
