@<TRIPOS>MOLECULE
*****
 50 53 0 0 0
SMALL
GASTEIGER

@<TRIPOS>ATOM
     1 C         -0.364505   -1.344748   1.68214 C.3        1 UNL1     0.1889
     2 C         -0.478988   -0.970448   0.179897 C.3        1 UNL1     0.1342
     3 C         -1.915716   -0.9284   -0.362792 C.3        1 UNL1     0.1174
     4 C         -2.823022   -1.982012   0.277375 C.3        1 UNL1     0.1456
     5 C         -2.682456   -2.029452   1.80981 C.3        1 UNL1     0.2326
     6 O         -1.323596   -2.273439   2.16595 O.3        1 UNL1     -0.3076
     7 O         -3.243897   -0.882   2.472726 O.3        1 UNL1     -0.4605
     8 C         -3.772736   -1.107312   3.730936 C.ar        1 UNL1     0.1310
     9 C         -4.613175   -2.170497   4.078211 C.ar        1 UNL1     0.0226
     10 C         -5.084484   -2.322577   5.387655 C.ar        1 UNL1     0.1343
     11 C         -4.707169   -1.427664   6.387957 C.ar        1 UNL1     0.1007
     12 C         -3.901498   -0.338789   6.044405 C.ar        1 UNL1     0.1389
     13 C         -3.429876   -0.18461   4.727122 C.ar        1 UNL1     0.0229
     14 C         -5.107581   -1.588173   7.805018 C.2        1 UNL1     0.1740
     15 C         -4.432776   -0.667234   8.778701 C.3        1 UNL1     0.0520
     16 C         -4.330297   0.713109   8.144581 C.3        1 UNL1     0.1322
     17 O         -3.558159   0.660959   6.924682 O.3        1 UNL1     -0.4828
     18 C         -5.674938   1.432557   8.013973 C.ar        1 UNL1     -0.0067
     19 C         -6.021003   2.036498   6.787715 C.ar        1 UNL1     -0.0516
     20 C         -7.221693   2.742839   6.648472 C.ar        1 UNL1     -0.0198
     21 C         -8.079463   2.858432   7.727682 C.ar        1 UNL1     0.1169
     22 C         -7.782055   2.246372   8.938372 C.ar        1 UNL1     -0.0198
     23 C         -6.590092   1.524366   9.07249 C.ar        1 UNL1     -0.0516
     24 O         -9.221769   3.585916   7.565499 O.3        1 UNL1     -0.5068
     25 O         -5.877415   -2.461988   8.195259 O.2        1 UNL1     -0.2917
     26 O         -5.9019   -3.380366   5.660597 O.3        1 UNL1     -0.5058
     27 O         -0.247243   -0.219236   2.537861 O.3        1 UNL1     -0.3648
     28 O         0.241424   -1.950346   -0.5905 O.3        1 UNL1     -0.3841
     29 O         -2.453058   0.392733   -0.273336 O.3        1 UNL1     -0.3863
     30 O         -2.492246   -3.281281   -0.259447 O.3        1 UNL1     -0.3829
     31 H         0.587172   -1.87415   1.800977 H        1 UNL1     0.0937
     32 H         0.0   0.0   0.0 H        1 UNL1     0.0671
     33 H         -1.87502   -1.154678   -1.437437 H        1 UNL1     0.0649
     34 H         -3.868422   -1.783891   0.016054 H        1 UNL1     0.0683
     35 H         -3.253226   -2.920347   2.100341 H        1 UNL1     0.1085
     36 H         -4.897411   -2.931002   3.35921 H        1 UNL1     0.0691
     37 H         -2.804879   0.672307   4.485119 H        1 UNL1     0.0691
     38 H         -3.440352   -1.079089   8.990827 H        1 UNL1     0.0385
     39 H         -5.003773   -0.652169   9.713321 H        1 UNL1     0.0385
     40 H         -3.731563   1.336902   8.822017 H        1 UNL1     0.0789
     41 H         -5.360443   1.967918   5.928292 H        1 UNL1     0.0623
     42 H         -7.471703   3.214187   5.701193 H        1 UNL1     0.0654
     43 H         -8.453745   2.317871   9.785503 H        1 UNL1     0.0654
     44 H         -6.394761   1.050191   10.02949 H        1 UNL1     0.0623
     45 H         -8.975315   4.498342   7.343113 H        1 UNL1     0.2921
     46 H         -5.516903   -3.91051   6.376234 H        1 UNL1     0.2922
     47 H         0.503721   0.328471   2.269665 H        1 UNL1     0.2126
     48 H         1.176771   -1.889074   -0.316448 H        1 UNL1     0.2101
     49 H         -2.006548   0.974352   -0.909059 H        1 UNL1     0.2100
     50 H         -2.724361   -3.282273   -1.2112 H        1 UNL1     0.2102
@<TRIPOS>BOND
     1     1     2    1
     2     1     6    1
     3     2     3    1
     4     3     4    1
     5     3    29    1
     6     3    33    1
     7     4     5    1
     8     5     6    1
     9     5     7    1
    10     5    35    1
    11     7     8    1
    12     8     9   ar
    13     8    13   ar
    14     9    10   ar
    15     9    36    1
    16    10    11   ar
    17    10    26    1
    18    11    12   ar
    19    11    14    1
    20    12    13   ar
    21    12    17    1
    22    13    37    1
    23    14    15    1
    24    14    25    2
    25    15    16    1
    26    15    38    1
    27    15    39    1
    28    16    17    1
    29    16    18    1
    30    16    40    1
    31    18    19   ar
    32    18    23   ar
    33    19    20   ar
    34    19    41    1
    35    20    21   ar
    36    20    42    1
    37    21    22   ar
    38    21    24    1
    39    22    23   ar
    40    22    43    1
    41    23    44    1
    42    24    45    1
    43    26    46    1
    44    27    47    1
    45    28    48    1
    46    29    49    1
    47    30    50    1
    48     1    31    1
    49     1    27    1
    50     2    32    1
    51     2    28    1
    52     4    34    1
    53     4    30    1
