@<TRIPOS>MOLECULE
*****
 50 53 0 0 0
SMALL
GASTEIGER

@<TRIPOS>ATOM
     1 C         -0.345759   -1.336411   1.692709 C.3        1 UNL1     0.1889
     2 C         -0.469186   -0.973627   0.18835 C.3        1 UNL1     0.1342
     3 C         -1.908198   -0.948823   -0.349326 C.3        1 UNL1     0.1174
     4 C         -2.803234   -2.006436   0.301431 C.3        1 UNL1     0.1456
     5 C         -2.65669   -2.041927   1.833628 C.3        1 UNL1     0.2326
     6 O         -1.294316   -2.270681   2.186442 O.3        1 UNL1     -0.3076
     7 O         -3.226499   -0.895222   2.490672 O.3        1 UNL1     -0.4605
     8 C         -3.748644   -1.116755   3.752344 C.ar        1 UNL1     0.1310
     9 C         -4.577785   -2.185343   4.110037 C.ar        1 UNL1     0.0226
     10 C         -5.042907   -2.332753   5.422224 C.ar        1 UNL1     0.1343
     11 C         -4.670413   -1.427425   6.414933 C.ar        1 UNL1     0.1007
     12 C         -3.876267   -0.333448   6.060912 C.ar        1 UNL1     0.1389
     13 C         -3.410879   -0.183991   4.740872 C.ar        1 UNL1     0.0229
     14 C         -5.064173   -1.581852   7.834531 C.2        1 UNL1     0.1740
     15 C         -4.394546   -0.647894   8.799347 C.3        1 UNL1     0.0520
     16 C         -4.307347   0.72892   8.155344 C.3        1 UNL1     0.1322
     17 O         -3.539167   0.675557   6.933001 O.3        1 UNL1     -0.4828
     18 C         -5.659159   1.434799   8.024723 C.ar        1 UNL1     -0.0067
     19 C         -6.015319   2.026949   6.795609 C.ar        1 UNL1     -0.0516
     20 C         -7.223095   2.721014   6.655913 C.ar        1 UNL1     -0.0198
     21 C         -8.078008   2.836036   7.737449 C.ar        1 UNL1     0.1169
     22 C         -7.770483   2.235203   8.951231 C.ar        1 UNL1     -0.0198
     23 C         -6.571304   1.525357   9.085941 C.ar        1 UNL1     -0.0516
     24 O         -9.227685   3.551631   7.574454 O.3        1 UNL1     -0.5068
     25 O         -5.824339   -2.460123   8.233622 O.2        1 UNL1     -0.2917
     26 O         -5.849346   -3.396245   5.705465 O.3        1 UNL1     -0.5058
     27 O         -0.235996   -0.203941   2.540206 O.3        1 UNL1     -0.3648
     28 O         0.257622   -1.952044   -0.577912 O.3        1 UNL1     -0.3841
     29 O         -2.457615   0.3678   -0.267012 O.3        1 UNL1     -0.3863
     30 O         -2.462194   -3.306235   -0.227627 O.3        1 UNL1     -0.3829
     31 H         0.61128   -1.856025   1.811694 H        1 UNL1     0.0937
     32 H         0.0   0.0   0.0 H        1 UNL1     0.0671
     33 H         -1.86926   -1.182156   -1.422526 H        1 UNL1     0.0649
     34 H         -3.851388   -1.819947   0.042596 H        1 UNL1     0.0683
     35 H         -3.218001   -2.9361   2.132398 H        1 UNL1     0.1085
     36 H         -4.857452   -2.953448   3.397351 H        1 UNL1     0.0691
     37 H         -2.79485   0.677053   4.490663 H        1 UNL1     0.0691
     38 H         -3.397532   -1.04894   9.010656 H        1 UNL1     0.0385
     39 H         -4.962277   -0.631705   9.735935 H        1 UNL1     0.0385
     40 H         -3.712062   1.362985   8.826252 H        1 UNL1     0.0789
     41 H         -5.357254   1.958611   5.934255 H        1 UNL1     0.0623
     42 H         -7.480949   3.183416   5.70633 H        1 UNL1     0.0654
     43 H         -8.439748   2.306271   9.800314 H        1 UNL1     0.0654
     44 H         -6.368063   1.059684   10.045465 H        1 UNL1     0.0623
     45 H         -8.990629   4.464764   7.344872 H        1 UNL1     0.2921
     46 H         -5.456795   -3.917779   6.423322 H        1 UNL1     0.2922
     47 H         0.508809   0.348913   2.265476 H        1 UNL1     0.2126
     48 H         1.193335   -1.880101   -0.307733 H        1 UNL1     0.2101
     49 H         -2.018896   0.949159   -0.908371 H        1 UNL1     0.2100
     50 H         -2.697728   -3.316005   -1.17849 H        1 UNL1     0.2102
@<TRIPOS>BOND
     1     1     2    1
     2     1     6    1
     3     2     3    1
     4     3     4    1
     5     3    29    1
     6     3    33    1
     7     4     5    1
     8     5     6    1
     9     5     7    1
    10     5    35    1
    11     7     8    1
    12     8     9   ar
    13     8    13   ar
    14     9    10   ar
    15     9    36    1
    16    10    11   ar
    17    10    26    1
    18    11    12   ar
    19    11    14    1
    20    12    13   ar
    21    12    17    1
    22    13    37    1
    23    14    15    1
    24    14    25    2
    25    15    16    1
    26    15    38    1
    27    15    39    1
    28    16    17    1
    29    16    18    1
    30    16    40    1
    31    18    19   ar
    32    18    23   ar
    33    19    20   ar
    34    19    41    1
    35    20    21   ar
    36    20    42    1
    37    21    22   ar
    38    21    24    1
    39    22    23   ar
    40    22    43    1
    41    23    44    1
    42    24    45    1
    43    26    46    1
    44    27    47    1
    45    28    48    1
    46    29    49    1
    47    30    50    1
    48     1    31    1
    49     1    27    1
    50     2    32    1
    51     2    28    1
    52     4    34    1
    53     4    30    1
