@<TRIPOS>MOLECULE
*****
 50 53 0 0 0
SMALL
GASTEIGER

@<TRIPOS>ATOM
     1 C         0.638532   -1.72557   1.177068 C.3        1 UNL1     0.1889
     2 C         -0.461795   -0.799708   0.592262 C.3        1 UNL1     0.1342
     3 C         -1.395342   -0.172762   1.639111 C.3        1 UNL1     0.1174
     4 C         -1.669744   -1.103596   2.822906 C.3        1 UNL1     0.1456
     5 C         -0.387455   -1.757766   3.368946 C.3        1 UNL1     0.2326
     6 O         0.274426   -2.473046   2.328198 O.3        1 UNL1     -0.3076
     7 O         0.475957   -0.837134   4.060522 O.3        1 UNL1     -0.4605
     8 C         1.771418   -1.269543   4.280367 C.ar        1 UNL1     0.1310
     9 C         2.457212   -1.188687   5.497103 C.ar        1 UNL1     0.0226
     10 C         3.765191   -1.671345   5.624126 C.ar        1 UNL1     0.1343
     11 C         4.411178   -2.268761   4.542629 C.ar        1 UNL1     0.1007
     12 C         3.751644   -2.318159   3.31163 C.ar        1 UNL1     0.1389
     13 C         2.437457   -1.830389   3.183479 C.ar        1 UNL1     0.0229
     14 C         5.760866   -2.870745   4.643183 C.2        1 UNL1     0.1740
     15 C         6.208606   -3.663721   3.450594 C.3        1 UNL1     0.0520
     16 C         5.769669   -2.929284   2.191271 C.3        1 UNL1     0.1322
     17 O         4.332561   -2.785992   2.155803 O.3        1 UNL1     -0.4828
     18 C         6.542908   -1.634015   1.932228 C.ar        1 UNL1     -0.0067
     19 C         7.856703   -1.70146   1.424679 C.ar        1 UNL1     -0.0516
     20 C         8.608693   -0.538268   1.221066 C.ar        1 UNL1     -0.0198
     21 C         8.062111   0.695129   1.527345 C.ar        1 UNL1     0.1169
     22 C         6.759038   0.796177   1.997058 C.ar        1 UNL1     -0.0198
     23 C         6.000309   -0.365582   2.18334 C.ar        1 UNL1     -0.0516
     24 O         8.837819   1.803199   1.351677 O.3        1 UNL1     -0.5068
     25 O         6.455278   -2.808595   5.654328 O.2        1 UNL1     -0.2917
     26 O         4.378694   -1.561346   6.837839 O.3        1 UNL1     -0.5058
     27 O         1.889995   -1.079128   1.346601 O.3        1 UNL1     -0.3648
     28 O         -1.281017   -1.574133   -0.303198 O.3        1 UNL1     -0.3841
     29 O         -0.914022   1.110404   2.044018 O.3        1 UNL1     -0.3863
     30 O         -2.58036   -2.144173   2.406173 O.3        1 UNL1     -0.3829
     31 H         0.832855   -2.495694   0.422597 H        1 UNL1     0.0937
     32 H         0.0   0.0   0.0 H        1 UNL1     0.0671
     33 H         -2.362817   0.018252   1.15411 H        1 UNL1     0.0649
     34 H         -2.163861   -0.548819   3.628184 H        1 UNL1     0.0683
     35 H         -0.755172   -2.503672   4.084688 H        1 UNL1     0.1085
     36 H         1.990108   -0.786257   6.389283 H        1 UNL1     0.0691
     37 H         1.94635   -1.879549   2.213999 H        1 UNL1     0.0691
     38 H         5.740406   -4.651728   3.515068 H        1 UNL1     0.0385
     39 H         7.294966   -3.796459   3.495102 H        1 UNL1     0.0385
     40 H         6.001654   -3.581687   1.338585 H        1 UNL1     0.0789
     41 H         8.311673   -2.658149   1.185099 H        1 UNL1     0.0623
     42 H         9.624936   -0.604203   0.840388 H        1 UNL1     0.0654
     43 H         6.315916   1.758052   2.225858 H        1 UNL1     0.0654
     44 H         4.982117   -0.248719   2.541773 H        1 UNL1     0.0623
     45 H         8.636168   2.18394   0.481568 H        1 UNL1     0.2921
     46 H         5.242142   -2.002703   6.805069 H        1 UNL1     0.2922
     47 H         2.293578   -0.899897   0.485871 H        1 UNL1     0.2126
     48 H         -2.014274   -0.993517   -0.584181 H        1 UNL1     0.2101
     49 H         0.052013   1.142918   1.957343 H        1 UNL1     0.2100
     50 H         -3.237028   -1.744719   1.798772 H        1 UNL1     0.2102
@<TRIPOS>BOND
     1     1     2    1
     2     1     6    1
     3     2     3    1
     4     3     4    1
     5     3    29    1
     6     3    33    1
     7     4     5    1
     8     5     6    1
     9     5     7    1
    10     5    35    1
    11     7     8    1
    12     8     9   ar
    13     8    13   ar
    14     9    10   ar
    15     9    36    1
    16    10    11   ar
    17    10    26    1
    18    11    12   ar
    19    11    14    1
    20    12    13   ar
    21    12    17    1
    22    13    37    1
    23    14    15    1
    24    14    25    2
    25    15    16    1
    26    15    38    1
    27    15    39    1
    28    16    17    1
    29    16    18    1
    30    16    40    1
    31    18    19   ar
    32    18    23   ar
    33    19    20   ar
    34    19    41    1
    35    20    21   ar
    36    20    42    1
    37    21    22   ar
    38    21    24    1
    39    22    23   ar
    40    22    43    1
    41    23    44    1
    42    24    45    1
    43    26    46    1
    44    27    47    1
    45    28    48    1
    46    29    49    1
    47    30    50    1
    48     1    31    1
    49     1    27    1
    50     2    32    1
    51     2    28    1
    52     4    34    1
    53     4    30    1
