@<TRIPOS>MOLECULE
*****
 50 53 0 0 0
SMALL
GASTEIGER

@<TRIPOS>ATOM
     1 C         0.644071   -1.444103   -1.506832 C.3        1 UNL1     0.1889
     2 C         0.339908   -1.042374   -0.038487 C.3        1 UNL1     0.1342
     3 C         1.51706   -1.221758   0.932388 C.3        1 UNL1     0.1174
     4 C         2.388137   -2.43344   0.591552 C.3        1 UNL1     0.1456
     5 C         2.732754   -2.50978   -0.907039 C.3        1 UNL1     0.2326
     6 O         1.535249   -2.535914   -1.680453 O.3        1 UNL1     -0.3076
     7 O         3.660299   -1.495666   -1.334302 O.3        1 UNL1     -0.4605
     8 C         3.838357   -1.37388   -2.700681 C.ar        1 UNL1     0.1310
     9 C         2.81931   -1.157971   -3.634613 C.ar        1 UNL1     0.0226
     10 C         3.103521   -1.030994   -4.999531 C.ar        1 UNL1     0.1343
     11 C         4.417563   -1.09315   -5.461344 C.ar        1 UNL1     0.1007
     12 C         5.439474   -1.349342   -4.543278 C.ar        1 UNL1     0.1389
     13 C         5.153162   -1.479616   -3.171241 C.ar        1 UNL1     0.0229
     14 C         4.782967   -0.882123   -6.881239 C.2        1 UNL1     0.1740
     15 C         6.251931   -0.76169   -7.162646 C.3        1 UNL1     0.0520
     16 C         6.991685   -1.779788   -6.305792 C.3        1 UNL1     0.1322
     17 O         6.754226   -1.537315   -4.901552 O.3        1 UNL1     -0.4828
     18 C         6.773188   -3.229639   -6.745014 C.ar        1 UNL1     -0.0067
     19 C         7.873964   -4.108884   -6.803613 C.ar        1 UNL1     -0.0516
     20 C         7.717088   -5.427741   -7.246296 C.ar        1 UNL1     -0.0198
     21 C         6.468781   -5.876245   -7.639237 C.ar        1 UNL1     0.1169
     22 C         5.359571   -5.044147   -7.5611 C.ar        1 UNL1     -0.0198
     23 C         5.512826   -3.730811   -7.100975 C.ar        1 UNL1     -0.0516
     24 O         6.361466   -7.155352   -8.100507 O.3        1 UNL1     -0.5068
     25 O         3.956226   -0.731397   -7.776932 O.2        1 UNL1     -0.2917
     26 O         2.064142   -0.822738   -5.858546 O.3        1 UNL1     -0.5058
     27 O         0.995115   -0.345096   -2.332507 O.3        1 UNL1     -0.3648
     28 O         -0.741666   -1.861151   0.443705 O.3        1 UNL1     -0.3841
     29 O         2.270401   -0.012635   1.044781 O.3        1 UNL1     -0.3863
     30 O         1.690095   -3.639983   0.969282 O.3        1 UNL1     -0.3829
     31 H         -0.296462   -1.811174   -1.931964 H        1 UNL1     0.0937
     32 H         0.0   0.0   0.0 H        1 UNL1     0.0671
     33 H         1.101473   -1.400751   1.933871 H        1 UNL1     0.0649
     34 H         3.315163   -2.403509   1.174758 H        1 UNL1     0.0683
     35 H         3.206739   -3.492898   -1.019718 H        1 UNL1     0.1085
     36 H         1.783889   -1.044379   -3.33275 H        1 UNL1     0.0691
     37 H         5.966489   -1.679863   -2.477057 H        1 UNL1     0.0691
     38 H         6.554587   0.260428   -6.911246 H        1 UNL1     0.0385
     39 H         6.426251   -0.916584   -8.232879 H        1 UNL1     0.0385
     40 H         8.066244   -1.594756   -6.438484 H        1 UNL1     0.0789
     41 H         8.865811   -3.77826   -6.509372 H        1 UNL1     0.0623
     42 H         8.575804   -6.092513   -7.298238 H        1 UNL1     0.0654
     43 H         4.374763   -5.389708   -7.852048 H        1 UNL1     0.0654
     44 H         4.622843   -3.111614   -7.042911 H        1 UNL1     0.0623
     45 H         6.872535   -7.736656   -7.514324 H        1 UNL1     0.2921
     46 H         2.219511   -1.315437   -6.679837 H        1 UNL1     0.2922
     47 H         1.727229   -0.585989   -2.917177 H        1 UNL1     0.2126
     48 H         -0.96052   -2.486419   -0.273843 H        1 UNL1     0.2101
     49 H         3.141928   -0.201204   1.427763 H        1 UNL1     0.2100
     50 H         2.078044   -3.962412   1.809072 H        1 UNL1     0.2102
@<TRIPOS>BOND
     1     1     2    1
     2     1     6    1
     3     2     3    1
     4     3     4    1
     5     3    29    1
     6     3    33    1
     7     4     5    1
     8     5     6    1
     9     5     7    1
    10     5    35    1
    11     7     8    1
    12     8     9   ar
    13     8    13   ar
    14     9    10   ar
    15     9    36    1
    16    10    11   ar
    17    10    26    1
    18    11    12   ar
    19    11    14    1
    20    12    13   ar
    21    12    17    1
    22    13    37    1
    23    14    15    1
    24    14    25    2
    25    15    16    1
    26    15    38    1
    27    15    39    1
    28    16    17    1
    29    16    18    1
    30    16    40    1
    31    18    19   ar
    32    18    23   ar
    33    19    20   ar
    34    19    41    1
    35    20    21   ar
    36    20    42    1
    37    21    22   ar
    38    21    24    1
    39    22    23   ar
    40    22    43    1
    41    23    44    1
    42    24    45    1
    43    26    46    1
    44    27    47    1
    45    28    48    1
    46    29    49    1
    47    30    50    1
    48     1    31    1
    49     1    27    1
    50     2    32    1
    51     2    28    1
    52     4    34    1
    53     4    30    1
