@<TRIPOS>MOLECULE
*****
 50 53 0 0 0
SMALL
GASTEIGER

@<TRIPOS>ATOM
     1 C         -0.33058   -1.3562   1.679954 C.3        1 UNL1     0.1889
     2 C         -0.466135   -0.976517   0.180818 C.3        1 UNL1     0.1342
     3 C         -1.909267   -0.948068   -0.345514 C.3        1 UNL1     0.1174
     4 C         -2.797555   -2.014565   0.299967 C.3        1 UNL1     0.1456
     5 C         -2.639206   -2.067255   1.830494 C.3        1 UNL1     0.2326
     6 O         -1.273794   -2.297666   2.170243 O.3        1 UNL1     -0.3076
     7 O         -3.205833   -0.929093   2.504913 O.3        1 UNL1     -0.4605
     8 C         -3.721326   -1.166668   3.766401 C.ar        1 UNL1     0.1310
     9 C         -4.548344   -2.239924   4.114917 C.ar        1 UNL1     0.0226
     10 C         -5.006568   -2.404002   5.427553 C.ar        1 UNL1     0.1343
     11 C         -4.629096   -1.511153   6.429639 C.ar        1 UNL1     0.1007
     12 C         -3.837059   -0.412568   6.085298 C.ar        1 UNL1     0.1389
     13 C         -3.378611   -0.246343   4.764834 C.ar        1 UNL1     0.0229
     14 C         -5.015396   -1.683583   7.849214 C.2        1 UNL1     0.1740
     15 C         -4.340947   -0.761667   8.822219 C.3        1 UNL1     0.0520
     16 C         -4.257427   0.623182   8.195183 C.3        1 UNL1     0.1322
     17 O         -3.495634   0.58546   6.968268 O.3        1 UNL1     -0.4828
     18 C         -5.610064   1.330256   8.080535 C.ar        1 UNL1     -0.0067
     19 C         -5.972777   1.937753   6.860863 C.ar        1 UNL1     -0.0516
     20 C         -7.181424   2.633169   6.736241 C.ar        1 UNL1     -0.0198
     21 C         -8.030699   2.734297   7.823592 C.ar        1 UNL1     0.1169
     22 C         -7.716697   2.118297   9.028078 C.ar        1 UNL1     -0.0198
     23 C         -6.51667   1.407161   9.147561 C.ar        1 UNL1     -0.0516
     24 O         -9.181375   3.451552   7.67564 O.3        1 UNL1     -0.5068
     25 O         -5.773266   -2.567038   8.241164 O.2        1 UNL1     -0.2917
     26 O         -5.811274   -3.471217   5.701569 O.3        1 UNL1     -0.5058
     27 O         -0.216172   -0.23327   2.539446 O.3        1 UNL1     -0.3648
     28 O         0.256373   -1.944887   -0.60209 O.3        1 UNL1     -0.3841
     29 O         -2.460189   0.366584   -0.24399 O.3        1 UNL1     -0.3863
     30 O         -2.458458   -3.307664   -0.246473 O.3        1 UNL1     -0.3829
     31 H         0.628191   -1.875486   1.78568 H        1 UNL1     0.0937
     32 H         0.0   0.0   0.0 H        1 UNL1     0.0671
     33 H         -1.87818   -1.169093   -1.421573 H        1 UNL1     0.0649
     34 H         -3.847967   -1.826945   0.051303 H        1 UNL1     0.0683
     35 H         -3.196746   -2.965739   2.123333 H        1 UNL1     0.1085
     36 H         -4.831558   -2.999064   3.394073 H        1 UNL1     0.0691
     37 H         -2.764093   0.617967   4.522288 H        1 UNL1     0.0691
     38 H         -3.342751   -1.165054   9.023245 H        1 UNL1     0.0385
     39 H         -4.903779   -0.757455   9.76189 H        1 UNL1     0.0385
     40 H         -3.658788   1.248912   8.870914 H        1 UNL1     0.0789
     41 H         -5.319207   1.880472   5.99529 H        1 UNL1     0.0623
     42 H         -7.444343   3.107432   5.793924 H        1 UNL1     0.0654
     43 H         -8.381532   2.178458   9.881475 H        1 UNL1     0.0654
     44 H         -6.308312   0.929486   10.100063 H        1 UNL1     0.0623
     45 H         -8.945486   4.372517   7.478417 H        1 UNL1     0.2921
     46 H         -5.414858   -4.001646   6.410732 H        1 UNL1     0.2922
     47 H         0.515271   0.332588   2.25545 H        1 UNL1     0.2126
     48 H         1.197187   -1.858731   -0.354745 H        1 UNL1     0.2101
     49 H         -2.027353   0.955966   -0.882015 H        1 UNL1     0.2100
     50 H         -2.701261   -3.307007   -1.195556 H        1 UNL1     0.2102
@<TRIPOS>BOND
     1     1     2    1
     2     1     6    1
     3     2     3    1
     4     3     4    1
     5     3    29    1
     6     3    33    1
     7     4     5    1
     8     5     6    1
     9     5     7    1
    10     5    35    1
    11     7     8    1
    12     8     9   ar
    13     8    13   ar
    14     9    10   ar
    15     9    36    1
    16    10    11   ar
    17    10    26    1
    18    11    12   ar
    19    11    14    1
    20    12    13   ar
    21    12    17    1
    22    13    37    1
    23    14    15    1
    24    14    25    2
    25    15    16    1
    26    15    38    1
    27    15    39    1
    28    16    17    1
    29    16    18    1
    30    16    40    1
    31    18    19   ar
    32    18    23   ar
    33    19    20   ar
    34    19    41    1
    35    20    21   ar
    36    20    42    1
    37    21    22   ar
    38    21    24    1
    39    22    23   ar
    40    22    43    1
    41    23    44    1
    42    24    45    1
    43    26    46    1
    44    27    47    1
    45    28    48    1
    46    29    49    1
    47    30    50    1
    48     1    31    1
    49     1    27    1
    50     2    32    1
    51     2    28    1
    52     4    34    1
    53     4    30    1
