@<TRIPOS>MOLECULE
*****
 50 53 0 0 0
SMALL
GASTEIGER

@<TRIPOS>ATOM
     1 C         0.082666   -0.394678   2.146672 C.3        1 UNL1     0.1889
     2 C         -0.699162   -0.089779   0.840639 C.3        1 UNL1     0.1342
     3 C         -1.577771   1.169261   0.898319 C.3        1 UNL1     0.1174
     4 C         -2.194637   1.399714   2.280161 C.3        1 UNL1     0.1456
     5 C         -1.169869   1.24019   3.418039 C.3        1 UNL1     0.2326
     6 O         -0.574802   -0.054104   3.35834 O.3        1 UNL1     -0.3076
     7 O         -0.203508   2.305312   3.472649 O.3        1 UNL1     -0.4605
     8 C         -0.432159   3.37528   2.626236 C.ar        1 UNL1     0.1310
     9 C         -1.415076   3.426352   1.631969 C.ar        1 UNL1     0.0226
     10 C         -1.579654   4.565363   0.834805 C.ar        1 UNL1     0.1343
     11 C         -0.780133   5.690974   1.028729 C.ar        1 UNL1     0.1007
     12 C         0.231832   5.636876   1.990906 C.ar        1 UNL1     0.1389
     13 C         0.398844   4.49052   2.790534 C.ar        1 UNL1     0.0229
     14 C         -0.965918   6.950771   0.27206 C.2        1 UNL1     0.1740
     15 C         -0.171058   8.125502   0.761706 C.3        1 UNL1     0.0520
     16 C         1.219726   7.639688   1.145975 C.3        1 UNL1     0.1322
     17 O         1.144955   6.645885   2.19184 O.3        1 UNL1     -0.4828
     18 C         2.084328   7.23699   -0.051114 C.ar        1 UNL1     -0.0067
     19 C         2.201893   8.115976   -1.14737 C.ar        1 UNL1     -0.0516
     20 C         2.946043   7.758566   -2.27806 C.ar        1 UNL1     -0.0198
     21 C         3.569882   6.524795   -2.327675 C.ar        1 UNL1     0.1169
     22 C         3.500215   5.651332   -1.250156 C.ar        1 UNL1     -0.0198
     23 C         2.771405   6.016074   -0.1118 C.ar        1 UNL1     -0.0516
     24 O         4.254384   6.195994   -3.460701 O.3        1 UNL1     -0.5068
     25 O         -1.770425   7.074685   -0.647668 O.2        1 UNL1     -0.2917
     26 O         -2.556045   4.550623   -0.118101 O.3        1 UNL1     -0.5058
     27 O         1.421174   0.075216   2.127096 O.3        1 UNL1     -0.3648
     28 O         -1.5655   -1.20409   0.556958 O.3        1 UNL1     -0.3841
     29 O         -0.86376   2.308455   0.414007 O.3        1 UNL1     -0.3863
     30 O         -3.266096   0.453185   2.484481 O.3        1 UNL1     -0.3829
     31 H         0.180207   -1.484207   2.205761 H        1 UNL1     0.0937
     32 H         0.0   0.0   0.0 H        1 UNL1     0.0671
     33 H         -2.412258   1.028252   0.197271 H        1 UNL1     0.0649
     34 H         -2.637361   2.400676   2.32987 H        1 UNL1     0.0683
     35 H         -1.780035   1.268975   4.329493 H        1 UNL1     0.1085
     36 H         -2.104809   2.605419   1.469311 H        1 UNL1     0.0691
     37 H         1.194817   4.473147   3.531897 H        1 UNL1     0.0691
     38 H         -0.696523   8.543395   1.627026 H        1 UNL1     0.0385
     39 H         -0.140689   8.890103   -0.022029 H        1 UNL1     0.0385
     40 H         1.7421   8.487432   1.609629 H        1 UNL1     0.0789
     41 H         1.714135   9.086351   -1.136658 H        1 UNL1     0.0623
     42 H         3.019335   8.440188   -3.12188 H        1 UNL1     0.0654
     43 H         3.99737   4.68891   -1.272354 H        1 UNL1     0.0654
     44 H         2.746997   5.313572   0.715691 H        1 UNL1     0.0623
     45 H         3.765642   5.495093   -3.921771 H        1 UNL1     0.2921
     46 H         -2.806854   3.63322   -0.31014 H        1 UNL1     0.2922
     47 H         1.56385   0.709526   2.843444 H        1 UNL1     0.2126
     48 H         -1.033684   -1.851023   0.054581 H        1 UNL1     0.2101
     49 H         -1.072876   3.084641   0.957697 H        1 UNL1     0.2100
     50 H         -3.162263   0.068835   3.379582 H        1 UNL1     0.2102
@<TRIPOS>BOND
     1     1     2    1
     2     1     6    1
     3     2     3    1
     4     3     4    1
     5     3    29    1
     6     3    33    1
     7     4     5    1
     8     5     6    1
     9     5     7    1
    10     5    35    1
    11     7     8    1
    12     8     9   ar
    13     8    13   ar
    14     9    10   ar
    15     9    36    1
    16    10    11   ar
    17    10    26    1
    18    11    12   ar
    19    11    14    1
    20    12    13   ar
    21    12    17    1
    22    13    37    1
    23    14    15    1
    24    14    25    2
    25    15    16    1
    26    15    38    1
    27    15    39    1
    28    16    17    1
    29    16    18    1
    30    16    40    1
    31    18    19   ar
    32    18    23   ar
    33    19    20   ar
    34    19    41    1
    35    20    21   ar
    36    20    42    1
    37    21    22   ar
    38    21    24    1
    39    22    23   ar
    40    22    43    1
    41    23    44    1
    42    24    45    1
    43    26    46    1
    44    27    47    1
    45    28    48    1
    46    29    49    1
    47    30    50    1
    48     1    31    1
    49     1    27    1
    50     2    32    1
    51     2    28    1
    52     4    34    1
    53     4    30    1
