@<TRIPOS>MOLECULE
*****
 50 53 0 0 0
SMALL
GASTEIGER

@<TRIPOS>ATOM
     1 C         0.386632   0.183197   2.141906 C.3        1 UNL1     0.1889
     2 C         -0.56572   -0.051189   0.938564 C.3        1 UNL1     0.1342
     3 C         -1.753037   0.920832   0.86165 C.3        1 UNL1     0.1174
     4 C         -2.280288   1.324027   2.240982 C.3        1 UNL1     0.1456
     5 C         -1.152018   1.71375   3.213343 C.3        1 UNL1     0.2326
     6 O         -0.225912   0.637097   3.339887 O.3        1 UNL1     -0.3076
     7 O         -0.52242   2.966461   2.888314 O.3        1 UNL1     -0.4605
     8 C         -0.050105   3.703455   3.959428 C.ar        1 UNL1     0.1310
     9 C         0.589113   4.944708   3.870028 C.ar        1 UNL1     0.0226
     10 C         1.017215   5.622636   5.017653 C.ar        1 UNL1     0.1343
     11 C         0.794938   5.086256   6.285222 C.ar        1 UNL1     0.1007
     12 C         0.194415   3.828409   6.385112 C.ar        1 UNL1     0.1389
     13 C         -0.233573   3.145744   5.230891 C.ar        1 UNL1     0.0229
     14 C         1.150992   5.79794   7.534576 C.2        1 UNL1     0.1740
     15 C         0.640548   5.178819   8.802521 C.3        1 UNL1     0.0520
     16 C         0.78539   3.66721   8.692895 C.3        1 UNL1     0.1322
     17 O         0.024767   3.158944   7.574776 O.3        1 UNL1     -0.4828
     18 C         2.235961   3.181718   8.746432 C.ar        1 UNL1     -0.0067
     19 C         2.500669   1.811542   8.948322 C.ar        1 UNL1     -0.0516
     20 C         3.815403   1.341258   9.049666 C.ar        1 UNL1     -0.0198
     21 C         4.871551   2.2301   8.958354 C.ar        1 UNL1     0.1169
     22 C         4.643754   3.580309   8.726222 C.ar        1 UNL1     -0.0198
     23 C         3.329651   4.048106   8.606405 C.ar        1 UNL1     -0.0516
     24 O         6.136969   1.741076   9.099681 O.3        1 UNL1     -0.5068
     25 O         1.753476   6.868025   7.554924 O.2        1 UNL1     -0.2917
     26 O         1.635239   6.829008   4.861779 O.3        1 UNL1     -0.5058
     27 O         1.531943   0.953903   1.814704 O.3        1 UNL1     -0.3648
     28 O         -1.106969   -1.38158   1.037632 O.3        1 UNL1     -0.3841
     29 O         -1.43477   2.046036   0.040215 O.3        1 UNL1     -0.3863
     30 O         -3.019811   0.220067   2.806728 O.3        1 UNL1     -0.3829
     31 H         0.790834   -0.797248   2.416548 H        1 UNL1     0.0937
     32 H         0.0   0.0   -0.0 H        1 UNL1     0.0671
     33 H         -2.575131   0.405834   0.345261 H        1 UNL1     0.0649
     34 H         -2.979479   2.161936   2.143816 H        1 UNL1     0.0683
     35 H         -1.659462   1.813383   4.181048 H        1 UNL1     0.1085
     36 H         0.74122   5.440471   2.917556 H        1 UNL1     0.0691
     37 H         -0.697465   2.167307   5.335566 H        1 UNL1     0.0691
     38 H         -0.410067   5.467956   8.912678 H        1 UNL1     0.0385
     39 H         1.19869   5.587745   9.651659 H        1 UNL1     0.0385
     40 H         0.30004   3.230609   9.57626 H        1 UNL1     0.0789
     41 H         1.688791   1.095006   9.032473 H        1 UNL1     0.0623
     42 H         4.006231   0.284132   9.217239 H        1 UNL1     0.0654
     43 H         5.463937   4.28276   8.638058 H        1 UNL1     0.0654
     44 H         3.188876   5.107483   8.414709 H        1 UNL1     0.0623
     45 H         6.690644   2.433024   9.496379 H        1 UNL1     0.2921
     46 H         0.966457   7.523336   4.752004 H        1 UNL1     0.2922
     47 H         2.194064   0.400595   1.37732 H        1 UNL1     0.2126
     48 H         -1.647078   -1.524163   0.23658 H        1 UNL1     0.2101
     49 H         -1.166357   2.794957   0.595971 H        1 UNL1     0.2100
     50 H         -3.835221   0.100447   2.277097 H        1 UNL1     0.2102
@<TRIPOS>BOND
     1     1     2    1
     2     1     6    1
     3     2     3    1
     4     3     4    1
     5     3    29    1
     6     3    33    1
     7     4     5    1
     8     5     6    1
     9     5     7    1
    10     5    35    1
    11     7     8    1
    12     8     9   ar
    13     8    13   ar
    14     9    10   ar
    15     9    36    1
    16    10    11   ar
    17    10    26    1
    18    11    12   ar
    19    11    14    1
    20    12    13   ar
    21    12    17    1
    22    13    37    1
    23    14    15    1
    24    14    25    2
    25    15    16    1
    26    15    38    1
    27    15    39    1
    28    16    17    1
    29    16    18    1
    30    16    40    1
    31    18    19   ar
    32    18    23   ar
    33    19    20   ar
    34    19    41    1
    35    20    21   ar
    36    20    42    1
    37    21    22   ar
    38    21    24    1
    39    22    23   ar
    40    22    43    1
    41    23    44    1
    42    24    45    1
    43    26    46    1
    44    27    47    1
    45    28    48    1
    46    29    49    1
    47    30    50    1
    48     1    31    1
    49     1    27    1
    50     2    32    1
    51     2    28    1
    52     4    34    1
    53     4    30    1
