@<TRIPOS>MOLECULE
*****
 50 53 0 0 0
SMALL
GASTEIGER

@<TRIPOS>ATOM
     1 C         0.493004   1.723563   -1.247831 C.3        1 UNL1     0.1889
     2 C         0.103997   1.086245   0.113213 C.3        1 UNL1     0.1342
     3 C         -1.179785   1.64976   0.74156 C.3        1 UNL1     0.1174
     4 C         -1.368527   3.143823   0.467203 C.3        1 UNL1     0.1456
     5 C         -1.124104   3.508416   -1.008498 C.3        1 UNL1     0.2326
     6 O         0.185334   3.101535   -1.399252 O.3        1 UNL1     -0.3076
     7 O         -2.1529   3.031512   -1.894761 O.3        1 UNL1     -0.4605
     8 C         -3.301036   3.800307   -1.960101 C.ar        1 UNL1     0.1310
     9 C         -3.617869   4.858204   -1.101165 C.ar        1 UNL1     0.0226
     10 C         -4.800911   5.589757   -1.259737 C.ar        1 UNL1     0.1343
     11 C         -5.685293   5.296136   -2.296799 C.ar        1 UNL1     0.1007
     12 C         -5.399729   4.215712   -3.1358 C.ar        1 UNL1     0.1389
     13 C         -4.21141   3.478611   -2.974523 C.ar        1 UNL1     0.0229
     14 C         -6.907746   6.089629   -2.561622 C.2        1 UNL1     0.1740
     15 C         -7.620843   5.77514   -3.843861 C.3        1 UNL1     0.0520
     16 C         -7.606826   4.266112   -4.04535 C.3        1 UNL1     0.1322
     17 O         -6.25159   3.771344   -4.120247 O.3        1 UNL1     -0.4828
     18 C         -8.506686   3.505631   -3.06829 C.ar        1 UNL1     -0.0067
     19 C         -9.303034   2.443476   -3.543547 C.ar        1 UNL1     -0.0516
     20 C         -10.172294   1.758111   -2.686444 C.ar        1 UNL1     -0.0198
     21 C         -10.259588   2.129283   -1.356618 C.ar        1 UNL1     0.1169
     22 C         -9.463618   3.14917   -0.851543 C.ar        1 UNL1     -0.0198
     23 C         -8.580758   3.822539   -1.704297 C.ar        1 UNL1     -0.0516
     24 O         -11.144942   1.463817   -0.560563 O.3        1 UNL1     -0.5068
     25 O         -7.289811   7.004923   -1.837227 O.2        1 UNL1     -0.2917
     26 O         -5.051391   6.608788   -0.387717 O.3        1 UNL1     -0.5058
     27 O         0.067588   0.965644   -2.369155 O.3        1 UNL1     -0.3648
     28 O         1.174977   1.316525   1.047386 O.3        1 UNL1     -0.3841
     29 O         -2.315097   0.86953   0.361509 O.3        1 UNL1     -0.3863
     30 O         -0.45004   3.896192   1.289401 O.3        1 UNL1     -0.3829
     31 H         1.586731   1.697715   -1.304137 H        1 UNL1     0.0937
     32 H         -0.0   0.0   0.0 H        1 UNL1     0.0671
     33 H         -1.098227   1.534597   1.831425 H        1 UNL1     0.0649
     34 H         -2.380459   3.451621   0.752956 H        1 UNL1     0.0683
     35 H         -1.132346   4.605581   -1.014766 H        1 UNL1     0.1085
     36 H         -2.945199   5.17168   -0.310363 H        1 UNL1     0.0691
     37 H         -4.012912   2.641354   -3.640173 H        1 UNL1     0.0691
     38 H         -7.088503   6.286587   -4.652912 H        1 UNL1     0.0385
     39 H         -8.638665   6.177094   -3.796436 H        1 UNL1     0.0385
     40 H         -8.026635   4.068561   -5.040967 H        1 UNL1     0.0789
     41 H         -9.259537   2.138955   -4.585192 H        1 UNL1     0.0623
     42 H         -10.789929   0.948616   -3.067571 H        1 UNL1     0.0654
     43 H         -9.513018   3.43799   0.191555 H        1 UNL1     0.0654
     44 H         -7.966247   4.607177   -1.273525 H        1 UNL1     0.0623
     45 H         -12.023532   1.51329   -0.970867 H        1 UNL1     0.2921
     46 H         -6.006775   6.773415   -0.348336 H        1 UNL1     0.2922
     47 H         -0.566654   0.288725   -2.094607 H        1 UNL1     0.2126
     48 H         0.762359   1.637042   1.872461 H        1 UNL1     0.2101
     49 H         -2.161205   -0.064007   0.577429 H        1 UNL1     0.2100
     50 H         0.436493   3.488699   1.201528 H        1 UNL1     0.2102
@<TRIPOS>BOND
     1     1     2    1
     2     1     6    1
     3     2     3    1
     4     3     4    1
     5     3    29    1
     6     3    33    1
     7     4     5    1
     8     5     6    1
     9     5     7    1
    10     5    35    1
    11     7     8    1
    12     8     9   ar
    13     8    13   ar
    14     9    10   ar
    15     9    36    1
    16    10    11   ar
    17    10    26    1
    18    11    12   ar
    19    11    14    1
    20    12    13   ar
    21    12    17    1
    22    13    37    1
    23    14    15    1
    24    14    25    2
    25    15    16    1
    26    15    38    1
    27    15    39    1
    28    16    17    1
    29    16    18    1
    30    16    40    1
    31    18    19   ar
    32    18    23   ar
    33    19    20   ar
    34    19    41    1
    35    20    21   ar
    36    20    42    1
    37    21    22   ar
    38    21    24    1
    39    22    23   ar
    40    22    43    1
    41    23    44    1
    42    24    45    1
    43    26    46    1
    44    27    47    1
    45    28    48    1
    46    29    49    1
    47    30    50    1
    48     1    31    1
    49     1    27    1
    50     2    32    1
    51     2    28    1
    52     4    34    1
    53     4    30    1
