@<TRIPOS>MOLECULE
*****
 50 53 0 0 0
SMALL
GASTEIGER

@<TRIPOS>ATOM
     1 C         -0.68643   -1.034595   1.797007 C.3        1 UNL1     0.1889
     2 C         -0.549122   -0.914783   0.255341 C.3        1 UNL1     0.1342
     3 C         -1.881122   -0.929847   -0.510174 C.3        1 UNL1     0.1174
     4 C         -2.927998   -1.83916   0.138145 C.3        1 UNL1     0.1456
     5 C         -3.027802   -1.632397   1.660529 C.3        1 UNL1     0.2326
     6 O         -1.754038   -1.84576   2.264574 O.3        1 UNL1     -0.3076
     7 O         -3.62633   -0.376919   2.030476 O.3        1 UNL1     -0.4605
     8 C         -4.347063   -0.373503   3.211179 C.ar        1 UNL1     0.1310
     9 C         -5.279748   -1.34346   3.594041 C.ar        1 UNL1     0.0226
     10 C         -5.947802   -1.260458   4.821525 C.ar        1 UNL1     0.1343
     11 C         -5.681549   -0.217154   5.707227 C.ar        1 UNL1     0.1007
     12 C         -4.782531   0.779512   5.318373 C.ar        1 UNL1     0.1389
     13 C         -4.112898   0.697239   4.082957 C.ar        1 UNL1     0.0229
     14 C         -6.296033   -0.125736   7.051922 C.2        1 UNL1     0.1740
     15 C         -5.730747   0.932133   7.953539 C.3        1 UNL1     0.0520
     16 C         -5.468975   2.182089   7.12466 C.3        1 UNL1     0.1322
     17 O         -4.526922   1.90646   6.064643 O.3        1 UNL1     -0.4828
     18 C         -6.743152   2.898339   6.670588 C.ar        1 UNL1     -0.0067
     19 C         -6.879926   3.278532   5.319677 C.ar        1 UNL1     -0.0516
     20 C         -8.01124   3.976849   4.880991 C.ar        1 UNL1     -0.0198
     21 C         -9.007109   4.306609   5.782839 C.ar        1 UNL1     0.1169
     22 C         -8.916625   3.916794   7.112762 C.ar        1 UNL1     -0.0198
     23 C         -7.794   3.202359   7.547906 C.ar        1 UNL1     -0.0516
     24 O         -10.076372   5.020148   5.326836 O.3        1 UNL1     -0.5068
     25 O         -7.156339   -0.903379   7.456435 O.2        1 UNL1     -0.2917
     26 O         -6.846403   -2.238234   5.134661 O.3        1 UNL1     -0.5058
     27 O         -0.646039   0.215297   2.467025 O.3        1 UNL1     -0.3648
     28 O         0.231254   -2.026958   -0.220879 O.3        1 UNL1     -0.3841
     29 O         -2.358783   0.400093   -0.722851 O.3        1 UNL1     -0.3863
     30 O         -2.58414   -3.217589   -0.121438 O.3        1 UNL1     -0.3829
     31 H         0.207763   -1.559261   2.150875 H        1 UNL1     0.0937
     32 H         0.0   0.0   -0.0 H        1 UNL1     0.0671
     33 H         -1.686741   -1.333981   -1.513474 H        1 UNL1     0.0649
     34 H         -3.909359   -1.662626   -0.315911 H        1 UNL1     0.0683
     35 H         -3.680542   -2.448027   1.996023 H        1 UNL1     0.1085
     36 H         -5.489598   -2.208606   2.974682 H        1 UNL1     0.0691
     37 H         -3.418558   1.486608   3.803165 H        1 UNL1     0.0691
     38 H         -4.801895   0.540536   8.381806 H        1 UNL1     0.0385
     39 H         -6.433367   1.118329   8.77295 H        1 UNL1     0.0385
     40 H         -4.948843   2.898554   7.774784 H        1 UNL1     0.0789
     41 H         -6.107945   3.039551   4.594016 H        1 UNL1     0.0623
     42 H         -8.099529   4.274851   3.839161 H        1 UNL1     0.0654
     43 H         -9.697708   4.156689   7.824289 H        1 UNL1     0.0654
     44 H         -7.761288   2.90466   8.59153 H        1 UNL1     0.0623
     45 H         -9.753955   5.867541   4.979432 H        1 UNL1     0.2921
     46 H         -6.597446   -2.64839   5.977991 H        1 UNL1     0.2922
     47 H         0.165792   0.690326   2.240889 H        1 UNL1     0.2126
     48 H         1.108763   -1.954153   0.201507 H        1 UNL1     0.2101
     49 H         -1.786163   0.858774   -1.358077 H        1 UNL1     0.2100
     50 H         -2.661107   -3.371049   -1.085927 H        1 UNL1     0.2102
@<TRIPOS>BOND
     1     1     2    1
     2     1     6    1
     3     2     3    1
     4     3     4    1
     5     3    29    1
     6     3    33    1
     7     4     5    1
     8     5     6    1
     9     5     7    1
    10     5    35    1
    11     7     8    1
    12     8     9   ar
    13     8    13   ar
    14     9    10   ar
    15     9    36    1
    16    10    11   ar
    17    10    26    1
    18    11    12   ar
    19    11    14    1
    20    12    13   ar
    21    12    17    1
    22    13    37    1
    23    14    15    1
    24    14    25    2
    25    15    16    1
    26    15    38    1
    27    15    39    1
    28    16    17    1
    29    16    18    1
    30    16    40    1
    31    18    19   ar
    32    18    23   ar
    33    19    20   ar
    34    19    41    1
    35    20    21   ar
    36    20    42    1
    37    21    22   ar
    38    21    24    1
    39    22    23   ar
    40    22    43    1
    41    23    44    1
    42    24    45    1
    43    26    46    1
    44    27    47    1
    45    28    48    1
    46    29    49    1
    47    30    50    1
    48     1    31    1
    49     1    27    1
    50     2    32    1
    51     2    28    1
    52     4    34    1
    53     4    30    1
