@<TRIPOS>MOLECULE
*****
 50 53 0 0 0
SMALL
GASTEIGER

@<TRIPOS>ATOM
     1 C         -1.534652   -0.57931   1.442237 C.3        1 UNL1     0.1889
     2 C         -0.669293   0.4878   0.719486 C.3        1 UNL1     0.1342
     3 C         0.163363   1.378532   1.654229 C.3        1 UNL1     0.1174
     4 C         -0.54594   1.67658   2.977548 C.3        1 UNL1     0.1456
     5 C         -1.158231   0.416434   3.615901 C.3        1 UNL1     0.2326
     6 O         -2.064643   -0.199162   2.703582 O.3        1 UNL1     -0.3076
     7 O         -0.176013   -0.495725   4.13986 O.3        1 UNL1     -0.4605
     8 C         0.72312   0.036662   5.046311 C.ar        1 UNL1     0.1310
     9 C         2.087487   -0.266695   5.107766 C.ar        1 UNL1     0.0226
     10 C         2.921828   0.339803   6.054306 C.ar        1 UNL1     0.1343
     11 C         2.41615   1.283132   6.947761 C.ar        1 UNL1     0.1007
     12 C         1.047426   1.563787   6.923025 C.ar        1 UNL1     0.1389
     13 C         0.208213   0.951854   5.972925 C.ar        1 UNL1     0.0229
     14 C         3.268112   2.01626   7.91256 C.2        1 UNL1     0.1740
     15 C         2.601707   3.148452   8.637539 C.3        1 UNL1     0.0520
     16 C         1.189161   2.718125   9.008335 C.3        1 UNL1     0.1322
     17 O         0.424854   2.394001   7.826029 O.3        1 UNL1     -0.4828
     18 C         1.137647   1.654964   10.108225 C.ar        1 UNL1     -0.0067
     19 C         2.218942   0.762831   10.260257 C.ar        1 UNL1     -0.0516
     20 C         2.183408   -0.251168   11.224884 C.ar        1 UNL1     -0.0198
     21 C         1.071708   -0.387804   12.036845 C.ar        1 UNL1     0.1169
     22 C         0.005479   0.49613   11.933616 C.ar        1 UNL1     -0.0198
     23 C         0.048619   1.521658   10.981519 C.ar        1 UNL1     -0.0516
     24 O         1.056886   -1.410509   12.939206 O.3        1 UNL1     -0.5068
     25 O         4.464322   1.78601   8.069254 O.2        1 UNL1     -0.2917
     26 O         4.243088   -0.000481   6.062258 O.3        1 UNL1     -0.5058
     27 O         -0.926275   -1.859921   1.494202 O.3        1 UNL1     -0.3648
     28 O         -1.543111   1.352306   -0.030032 O.3        1 UNL1     -0.3841
     29 O         1.472702   0.836313   1.837981 O.3        1 UNL1     -0.3863
     30 O         -1.598835   2.637273   2.7448 O.3        1 UNL1     -0.3829
     31 H         -2.42673   -0.729445   0.824389 H        1 UNL1     0.0937
     32 H         0.0   0.0   0.0 H        1 UNL1     0.0671
     33 H         0.31519   2.343465   1.150667 H        1 UNL1     0.0649
     34 H         0.155892   2.134846   3.683116 H        1 UNL1     0.0683
     35 H         -1.758382   0.806194   4.447637 H        1 UNL1     0.1085
     36 H         2.552023   -0.949547   4.404886 H        1 UNL1     0.0691
     37 H         -0.85405   1.186554   5.975216 H        1 UNL1     0.0691
     38 H         2.587498   4.011053   7.962821 H        1 UNL1     0.0385
     39 H         3.198589   3.412136   9.517301 H        1 UNL1     0.0385
     40 H         0.683141   3.597166   9.42994 H        1 UNL1     0.0789
     41 H         3.099125   0.843441   9.629044 H        1 UNL1     0.0623
     42 H         3.018433   -0.940263   11.324352 H        1 UNL1     0.0654
     43 H         -0.863561   0.407499   12.574572 H        1 UNL1     0.0654
     44 H         -0.797368   2.200661   10.935626 H        1 UNL1     0.0623
     45 H         1.974423   -1.663559   13.13106 H        1 UNL1     0.2921
     46 H         4.421827   -0.586051   6.814967 H        1 UNL1     0.2922
     47 H         -0.388225   -1.942785   2.293887 H        1 UNL1     0.2126
     48 H         -1.723306   0.901354   -0.877324 H        1 UNL1     0.2101
     49 H         1.824415   1.108211   2.70063 H        1 UNL1     0.2100
     50 H         -1.322925   3.212868   2.001646 H        1 UNL1     0.2102
@<TRIPOS>BOND
     1     1     2    1
     2     1     6    1
     3     2     3    1
     4     3     4    1
     5     3    29    1
     6     3    33    1
     7     4     5    1
     8     5     6    1
     9     5     7    1
    10     5    35    1
    11     7     8    1
    12     8     9   ar
    13     8    13   ar
    14     9    10   ar
    15     9    36    1
    16    10    11   ar
    17    10    26    1
    18    11    12   ar
    19    11    14    1
    20    12    13   ar
    21    12    17    1
    22    13    37    1
    23    14    15    1
    24    14    25    2
    25    15    16    1
    26    15    38    1
    27    15    39    1
    28    16    17    1
    29    16    18    1
    30    16    40    1
    31    18    19   ar
    32    18    23   ar
    33    19    20   ar
    34    19    41    1
    35    20    21   ar
    36    20    42    1
    37    21    22   ar
    38    21    24    1
    39    22    23   ar
    40    22    43    1
    41    23    44    1
    42    24    45    1
    43    26    46    1
    44    27    47    1
    45    28    48    1
    46    29    49    1
    47    30    50    1
    48     1    31    1
    49     1    27    1
    50     2    32    1
    51     2    28    1
    52     4    34    1
    53     4    30    1
