@<TRIPOS>MOLECULE
*****
 50 53 0 0 0
SMALL
GASTEIGER

@<TRIPOS>ATOM
     1 C         0.556957   1.403152   1.578534 C.3        1 UNL1     0.1889
     2 C         0.542068   -0.017838   0.953627 C.3        1 UNL1     0.1342
     3 C         -0.061611   -1.107517   1.852869 C.3        1 UNL1     0.1174
     4 C         0.233747   -0.882464   3.337871 C.3        1 UNL1     0.1456
     5 C         -0.021031   0.571128   3.776643 C.3        1 UNL1     0.2326
     6 O         0.759062   1.462299   2.982831 O.3        1 UNL1     -0.3076
     7 O         -1.416287   0.921925   3.815672 O.3        1 UNL1     -0.4605
     8 C         -1.898568   1.354831   5.037771 C.ar        1 UNL1     0.1310
     9 C         -2.652554   0.585085   5.930125 C.ar        1 UNL1     0.0226
     10 C         -3.081531   1.109905   7.155051 C.ar        1 UNL1     0.1343
     11 C         -2.746325   2.41079   7.528114 C.ar        1 UNL1     0.1007
     12 C         -2.028762   3.20269   6.62768 C.ar        1 UNL1     0.1389
     13 C         -1.599803   2.675619   5.394951 C.ar        1 UNL1     0.0229
     14 C         -3.101527   2.987629   8.8454 C.2        1 UNL1     0.1740
     15 C         -2.472148   4.311644   9.165423 C.3        1 UNL1     0.0520
     16 C         -2.483329   5.167336   7.906208 C.3        1 UNL1     0.1322
     17 O         -1.737699   4.529294   6.846016 O.3        1 UNL1     -0.4828
     18 C         -3.878658   5.647826   7.500118 C.ar        1 UNL1     -0.0067
     19 C         -4.038599   6.947536   6.977253 C.ar        1 UNL1     -0.0516
     20 C         -5.306912   7.435208   6.640327 C.ar        1 UNL1     -0.0198
     21 C         -6.421443   6.637449   6.82802 C.ar        1 UNL1     0.1169
     22 C         -6.292456   5.341186   7.309583 C.ar        1 UNL1     -0.0198
     23 C         -5.022286   4.846681   7.629255 C.ar        1 UNL1     -0.0516
     24 O         -7.644164   7.159942   6.524122 O.3        1 UNL1     -0.5068
     25 O         -3.797671   2.405354   9.672941 O.2        1 UNL1     -0.2917
     26 O         -3.814654   0.307416   7.97975 O.3        1 UNL1     -0.5058
     27 O         -0.536324   2.210904   1.172259 O.3        1 UNL1     -0.3648
     28 O         1.89882   -0.403507   0.6652 O.3        1 UNL1     -0.3841
     29 O         -1.455594   -1.271615   1.584514 O.3        1 UNL1     -0.3863
     30 O         1.61508   -1.211418   3.601304 O.3        1 UNL1     -0.3829
     31 H         1.436043   1.914672   1.171553 H        1 UNL1     0.0937
     32 H         0.0   0.0   0.0 H        1 UNL1     0.0671
     33 H         0.403099   -2.064682   1.577913 H        1 UNL1     0.0649
     34 H         -0.378163   -1.556716   3.947257 H        1 UNL1     0.0683
     35 H         0.383354   0.614574   4.795693 H        1 UNL1     0.1085
     36 H         -2.898094   -0.450762   5.723117 H        1 UNL1     0.0691
     37 H         -1.043468   3.313064   4.711102 H        1 UNL1     0.0691
     38 H         -1.448178   4.118691   9.50274 H        1 UNL1     0.0385
     39 H         -3.021113   4.780234   9.98934 H        1 UNL1     0.0385
     40 H         -1.915352   6.080419   8.130265 H        1 UNL1     0.0789
     41 H         -3.180476   7.596627   6.829074 H        1 UNL1     0.0623
     42 H         -5.418504   8.443447   6.249158 H        1 UNL1     0.0654
     43 H         -7.156999   4.702603   7.44628 H        1 UNL1     0.0654
     44 H         -4.957427   3.825766   7.993082 H        1 UNL1     0.0623
     45 H         -8.081934   6.567959   5.891168 H        1 UNL1     0.2921
     46 H         -4.358597   0.856797   8.566025 H        1 UNL1     0.2922
     47 H         -0.605943   2.219448   0.207407 H        1 UNL1     0.2126
     48 H         1.906683   -1.378496   0.609816 H        1 UNL1     0.2101
     49 H         -1.679057   -2.215803   1.565305 H        1 UNL1     0.2100
     50 H         1.76901   -2.130563   3.299326 H        1 UNL1     0.2102
@<TRIPOS>BOND
     1     1     2    1
     2     1     6    1
     3     2     3    1
     4     3     4    1
     5     3    29    1
     6     3    33    1
     7     4     5    1
     8     5     6    1
     9     5     7    1
    10     5    35    1
    11     7     8    1
    12     8     9   ar
    13     8    13   ar
    14     9    10   ar
    15     9    36    1
    16    10    11   ar
    17    10    26    1
    18    11    12   ar
    19    11    14    1
    20    12    13   ar
    21    12    17    1
    22    13    37    1
    23    14    15    1
    24    14    25    2
    25    15    16    1
    26    15    38    1
    27    15    39    1
    28    16    17    1
    29    16    18    1
    30    16    40    1
    31    18    19   ar
    32    18    23   ar
    33    19    20   ar
    34    19    41    1
    35    20    21   ar
    36    20    42    1
    37    21    22   ar
    38    21    24    1
    39    22    23   ar
    40    22    43    1
    41    23    44    1
    42    24    45    1
    43    26    46    1
    44    27    47    1
    45    28    48    1
    46    29    49    1
    47    30    50    1
    48     1    31    1
    49     1    27    1
    50     2    32    1
    51     2    28    1
    52     4    34    1
    53     4    30    1
