@<TRIPOS>MOLECULE
*****
 50 53 0 0 0
SMALL
GASTEIGER

@<TRIPOS>ATOM
     1 C         -0.334053   -1.330374   1.699799 C.3        1 UNL1     0.1889
     2 C         -0.461458   -0.976266   0.193706 C.3        1 UNL1     0.1342
     3 C         -1.901034   -0.965394   -0.34292 C.3        1 UNL1     0.1174
     4 C         -2.78732   -2.026583   0.313962 C.3        1 UNL1     0.1456
     5 C         -2.639321   -2.053092   1.846201 C.3        1 UNL1     0.2326
     6 O         -1.274938   -2.269446   2.199073 O.3        1 UNL1     -0.3076
     7 O         -3.217518   -0.907501   2.497837 O.3        1 UNL1     -0.4605
     8 C         -3.730167   -1.124938   3.764107 C.ar        1 UNL1     0.1310
     9 C         -4.545924   -2.199458   4.134575 C.ar        1 UNL1     0.0226
     10 C         -5.002054   -2.341794   5.450473 C.ar        1 UNL1     0.1343
     11 C         -4.633569   -1.42508   6.434188 C.ar        1 UNL1     0.1007
     12 C         -3.853052   -0.325514   6.067402 C.ar        1 UNL1     0.1389
     13 C         -3.396723   -0.181187   4.743633 C.ar        1 UNL1     0.0229
     14 C         -5.017662   -1.572866   7.857137 C.2        1 UNL1     0.1740
     15 C         -4.352525   -0.624604   8.811045 C.3        1 UNL1     0.0520
     16 C         -4.283532   0.748122   8.156203 C.3        1 UNL1     0.1322
     17 O         -3.521735   0.693579   6.929923 O.3        1 UNL1     -0.4828
     18 C         -5.643453   1.438704   8.028 C.ar        1 UNL1     -0.0067
     19 C         -6.0202   2.002198   6.791574 C.ar        1 UNL1     -0.0516
     20 C         -7.236101   2.682107   6.652752 C.ar        1 UNL1     -0.0198
     21 C         -8.078772   2.811436   7.742251 C.ar        1 UNL1     0.1169
     22 C         -7.75076   2.238498   8.96413 C.ar        1 UNL1     -0.0198
     23 C         -6.543367   1.542631   9.098397 C.ar        1 UNL1     -0.0516
     24 O         -9.23707   3.512925   7.578975 O.3        1 UNL1     -0.5068
     25 O         -5.766229   -2.456044   8.267173 O.2        1 UNL1     -0.2917
     26 O         -5.795584   -3.411545   5.746323 O.3        1 UNL1     -0.5058
     27 O         -0.232441   -0.192763   2.541406 O.3        1 UNL1     -0.3648
     28 O         0.27234   -1.952916   -0.568134 O.3        1 UNL1     -0.3841
     29 O         -2.460605   0.347325   -0.266893 O.3        1 UNL1     -0.3863
     30 O         -2.436596   -3.326386   -0.208721 O.3        1 UNL1     -0.3829
     31 H         0.627087   -1.841922   1.820662 H        1 UNL1     0.0937
     32 H         0.0   0.0   0.0 H        1 UNL1     0.0671
     33 H         -1.861113   -1.203908   -1.414945 H        1 UNL1     0.0649
     34 H         -3.837092   -1.84957   0.055029 H        1 UNL1     0.0683
     35 H         -3.193433   -2.950058   2.149994 H        1 UNL1     0.1085
     36 H         -4.821462   -2.975857   3.429306 H        1 UNL1     0.0691
     37 H         -2.791259   0.684376   4.483426 H        1 UNL1     0.0691
     38 H         -3.350147   -1.013505   9.019665 H        1 UNL1     0.0385
     39 H         -4.915106   -0.607289   9.750716 H        1 UNL1     0.0385
     40 H         -3.691216   1.393501   8.8189 H        1 UNL1     0.0789
     41 H         -5.372101   1.922251   5.923688 H        1 UNL1     0.0623
     42 H         -7.509909   3.122528   5.697205 H        1 UNL1     0.0654
     43 H         -8.410233   2.32082   9.819833 H        1 UNL1     0.0654
     44 H         -6.324014   1.098642   10.064628 H        1 UNL1     0.0623
     45 H         -9.011688   4.421053   7.319701 H        1 UNL1     0.2921
     46 H         -5.392801   -3.924223   6.464891 H        1 UNL1     0.2922
     47 H         0.510372   0.362331   2.265801 H        1 UNL1     0.2126
     48 H         1.204489   -1.885959   -0.284676 H        1 UNL1     0.2101
     49 H         -2.021084   0.930927   -0.90566 H        1 UNL1     0.2100
     50 H         -2.667563   -3.340915   -1.160643 H        1 UNL1     0.2102
@<TRIPOS>BOND
     1     1     2    1
     2     1     6    1
     3     2     3    1
     4     3     4    1
     5     3    29    1
     6     3    33    1
     7     4     5    1
     8     5     6    1
     9     5     7    1
    10     5    35    1
    11     7     8    1
    12     8     9   ar
    13     8    13   ar
    14     9    10   ar
    15     9    36    1
    16    10    11   ar
    17    10    26    1
    18    11    12   ar
    19    11    14    1
    20    12    13   ar
    21    12    17    1
    22    13    37    1
    23    14    15    1
    24    14    25    2
    25    15    16    1
    26    15    38    1
    27    15    39    1
    28    16    17    1
    29    16    18    1
    30    16    40    1
    31    18    19   ar
    32    18    23   ar
    33    19    20   ar
    34    19    41    1
    35    20    21   ar
    36    20    42    1
    37    21    22   ar
    38    21    24    1
    39    22    23   ar
    40    22    43    1
    41    23    44    1
    42    24    45    1
    43    26    46    1
    44    27    47    1
    45    28    48    1
    46    29    49    1
    47    30    50    1
    48     1    31    1
    49     1    27    1
    50     2    32    1
    51     2    28    1
    52     4    34    1
    53     4    30    1
