@<TRIPOS>MOLECULE
*****
 50 53 0 0 0
SMALL
GASTEIGER

@<TRIPOS>ATOM
     1 C         -1.576558   -0.933159   1.18932 C.3        1 UNL1     0.1889
     2 C         -1.094933   0.022418   0.064665 C.3        1 UNL1     0.1342
     3 C         -1.558074   1.479182   0.218952 C.3        1 UNL1     0.1174
     4 C         -2.955328   1.595849   0.833107 C.3        1 UNL1     0.1456
     5 C         -3.132965   0.697419   2.070699 C.3        1 UNL1     0.2326
     6 O         -2.861249   -0.659896   1.729037 O.3        1 UNL1     -0.3076
     7 O         -2.393389   1.150804   3.219085 O.3        1 UNL1     -0.4605
     8 C         -3.074156   1.984354   4.088153 C.ar        1 UNL1     0.1310
     9 C         -3.672815   1.58822   5.28898 C.ar        1 UNL1     0.0226
     10 C         -4.326681   2.513411   6.111404 C.ar        1 UNL1     0.1343
     11 C         -4.377175   3.862769   5.764235 C.ar        1 UNL1     0.1007
     12 C         -3.818651   4.263395   4.547546 C.ar        1 UNL1     0.1389
     13 C         -3.163551   3.332473   3.719501 C.ar        1 UNL1     0.0229
     14 C         -4.981594   4.896543   6.636097 C.2        1 UNL1     0.1740
     15 C         -4.75087   6.317835   6.213906 C.3        1 UNL1     0.0520
     16 C         -4.879169   6.397285   4.698919 C.3        1 UNL1     0.1322
     17 O         -3.905198   5.545422   4.056441 O.3        1 UNL1     -0.4828
     18 C         -6.31201   6.217474   4.191613 C.ar        1 UNL1     -0.0067
     19 C         -7.357412   6.944653   4.797054 C.ar        1 UNL1     -0.0516
     20 C         -8.685027   6.76852   4.389158 C.ar        1 UNL1     -0.0198
     21 C         -8.980449   5.864852   3.384201 C.ar        1 UNL1     0.1169
     22 C         -7.969082   5.158706   2.745974 C.ar        1 UNL1     -0.0198
     23 C         -6.639409   5.348245   3.141068 C.ar        1 UNL1     -0.0516
     24 O         -10.288809   5.692208   3.039543 O.3        1 UNL1     -0.5068
     25 O         -5.568308   4.638654   7.68383 O.2        1 UNL1     -0.2917
     26 O         -4.890962   2.062315   7.268851 O.3        1 UNL1     -0.5058
     27 O         -0.612202   -1.136593   2.209819 O.3        1 UNL1     -0.3648
     28 O         -1.60579   -0.458646   -1.192438 O.3        1 UNL1     -0.3841
     29 O         -0.579782   2.250857   0.918662 O.3        1 UNL1     -0.3863
     30 O         -3.939993   1.223776   -0.155673 O.3        1 UNL1     -0.3829
     31 H         -1.696283   -1.920789   0.7307 H        1 UNL1     0.0937
     32 H         0.0   0.0   0.0 H        1 UNL1     0.0671
     33 H         -1.614533   1.921293   -0.785573 H        1 UNL1     0.0649
     34 H         -3.156458   2.636677   1.109918 H        1 UNL1     0.0683
     35 H         -4.205569   0.761882   2.292609 H        1 UNL1     0.1085
     36 H         -3.619702   0.564161   5.641971 H        1 UNL1     0.0691
     37 H         -2.737885   3.669541   2.776799 H        1 UNL1     0.0691
     38 H         -3.744567   6.601118   6.540451 H        1 UNL1     0.0385
     39 H         -5.471322   6.965543   6.724984 H        1 UNL1     0.0385
     40 H         -4.591589   7.415144   4.402641 H        1 UNL1     0.0789
     41 H         -7.152607   7.653267   5.594281 H        1 UNL1     0.0623
     42 H         -9.483603   7.326386   4.871935 H        1 UNL1     0.0654
     43 H         -8.187706   4.459641   1.947587 H        1 UNL1     0.0654
     44 H         -5.873648   4.7878   2.613473 H        1 UNL1     0.0623
     45 H         -10.791704   5.478232   3.842056 H        1 UNL1     0.2921
     46 H         -4.254414   1.504357   7.743089 H        1 UNL1     0.2922
     47 H         -0.018813   -1.861993   1.969936 H        1 UNL1     0.2126
     48 H         -1.678797   0.317828   -1.780222 H        1 UNL1     0.2101
     49 H         -0.70011   2.146513   1.875964 H        1 UNL1     0.2100
     50 H         -4.724753   0.875861   0.316365 H        1 UNL1     0.2102
@<TRIPOS>BOND
     1     1     2    1
     2     1     6    1
     3     2     3    1
     4     3     4    1
     5     3    29    1
     6     3    33    1
     7     4     5    1
     8     5     6    1
     9     5     7    1
    10     5    35    1
    11     7     8    1
    12     8     9   ar
    13     8    13   ar
    14     9    10   ar
    15     9    36    1
    16    10    11   ar
    17    10    26    1
    18    11    12   ar
    19    11    14    1
    20    12    13   ar
    21    12    17    1
    22    13    37    1
    23    14    15    1
    24    14    25    2
    25    15    16    1
    26    15    38    1
    27    15    39    1
    28    16    17    1
    29    16    18    1
    30    16    40    1
    31    18    19   ar
    32    18    23   ar
    33    19    20   ar
    34    19    41    1
    35    20    21   ar
    36    20    42    1
    37    21    22   ar
    38    21    24    1
    39    22    23   ar
    40    22    43    1
    41    23    44    1
    42    24    45    1
    43    26    46    1
    44    27    47    1
    45    28    48    1
    46    29    49    1
    47    30    50    1
    48     1    31    1
    49     1    27    1
    50     2    32    1
    51     2    28    1
    52     4    34    1
    53     4    30    1
