@<TRIPOS>MOLECULE
*****
 50 53 0 0 0
SMALL
GASTEIGER

@<TRIPOS>ATOM
     1 C         0.000352   1.927506   1.027387 C.3        1 UNL1     0.1889
     2 C         0.588199   0.926053   -0.002888 C.3        1 UNL1     0.1342
     3 C         2.069378   0.57957   0.212807 C.3        1 UNL1     0.1174
     4 C         2.884101   1.761514   0.744173 C.3        1 UNL1     0.1456
     5 C         2.184312   2.484335   1.909587 C.3        1 UNL1     0.2326
     6 O         0.891606   2.926163   1.501459 O.3        1 UNL1     -0.3076
     7 O         2.162092   1.718966   3.128208 O.3        1 UNL1     -0.4605
     8 C         3.256249   1.872508   3.960537 C.ar        1 UNL1     0.1310
     9 C         3.20833   2.302658   5.290941 C.ar        1 UNL1     0.0226
     10 C         4.373677   2.409995   6.059282 C.ar        1 UNL1     0.1343
     11 C         5.613787   2.066656   5.522546 C.ar        1 UNL1     0.1007
     12 C         5.679262   1.67505   4.182717 C.ar        1 UNL1     0.1389
     13 C         4.507685   1.569737   3.409576 C.ar        1 UNL1     0.0229
     14 C         6.865742   2.081045   6.314099 C.2        1 UNL1     0.1740
     15 C         8.063212   1.47149   5.646224 C.3        1 UNL1     0.0520
     16 C         8.057999   1.881696   4.180052 C.3        1 UNL1     0.1322
     17 O         6.858233   1.418212   3.522166 O.3        1 UNL1     -0.4828
     18 C         8.374372   3.361963   3.953241 C.ar        1 UNL1     -0.0067
     19 C         7.90493   3.999612   2.786519 C.ar        1 UNL1     -0.0516
     20 C         8.216287   5.339309   2.525308 C.ar        1 UNL1     -0.0198
     21 C         9.000598   6.0485   3.417346 C.ar        1 UNL1     0.1169
     22 C         9.449828   5.457909   4.591329 C.ar        1 UNL1     -0.0198
     23 C         9.123216   4.123655   4.861786 C.ar        1 UNL1     -0.0516
     24 O         9.314729   7.33994   3.110908 O.3        1 UNL1     -0.5068
     25 O         6.928838   2.485177   7.472193 O.2        1 UNL1     -0.2917
     26 O         4.258621   2.836699   7.350123 O.3        1 UNL1     -0.5058
     27 O         -0.6968   1.299748   2.091664 O.3        1 UNL1     -0.3648
     28 O         0.469902   1.501685   -1.317179 O.3        1 UNL1     -0.3841
     29 O         2.203713   -0.592397   1.019392 O.3        1 UNL1     -0.3863
     30 O         3.100076   2.707178   -0.325764 O.3        1 UNL1     -0.3829
     31 H         -0.77054   2.501136   0.501313 H        1 UNL1     0.0937
     32 H         0.0   -0.0   0.0 H        1 UNL1     0.0671
     33 H         2.496895   0.312292   -0.763672 H        1 UNL1     0.0649
     34 H         3.871311   1.417829   1.072346 H        1 UNL1     0.0683
     35 H         2.793495   3.383158   2.067356 H        1 UNL1     0.1085
     36 H         2.269196   2.530778   5.782988 H        1 UNL1     0.0691
     37 H         4.585717   1.263655   2.368558 H        1 UNL1     0.0691
     38 H         7.984039   0.384304   5.752456 H        1 UNL1     0.0385
     39 H         8.969955   1.800731   6.165066 H        1 UNL1     0.0385
     40 H         8.871231   1.331901   3.687204 H        1 UNL1     0.0789
     41 H         7.295217   3.462012   2.066181 H        1 UNL1     0.0623
     42 H         7.858259   5.816322   1.616305 H        1 UNL1     0.0654
     43 H         10.052086   6.00855   5.304063 H        1 UNL1     0.0654
     44 H         9.482232   3.697359   5.793571 H        1 UNL1     0.0623
     45 H         10.146953   7.342755   2.610796 H        1 UNL1     0.2921
     46 H         3.83958   2.143267   7.883948 H        1 UNL1     0.2922
     47 H         -0.336206   1.585402   2.942683 H        1 UNL1     0.2126
     48 H         0.333596   0.759034   -1.936551 H        1 UNL1     0.2101
     49 H         1.475173   -0.638197   1.658866 H        1 UNL1     0.2100
     50 H         3.198705   2.202019   -1.15931 H        1 UNL1     0.2102
@<TRIPOS>BOND
     1     1     2    1
     2     1     6    1
     3     2     3    1
     4     3     4    1
     5     3    29    1
     6     3    33    1
     7     4     5    1
     8     5     6    1
     9     5     7    1
    10     5    35    1
    11     7     8    1
    12     8     9   ar
    13     8    13   ar
    14     9    10   ar
    15     9    36    1
    16    10    11   ar
    17    10    26    1
    18    11    12   ar
    19    11    14    1
    20    12    13   ar
    21    12    17    1
    22    13    37    1
    23    14    15    1
    24    14    25    2
    25    15    16    1
    26    15    38    1
    27    15    39    1
    28    16    17    1
    29    16    18    1
    30    16    40    1
    31    18    19   ar
    32    18    23   ar
    33    19    20   ar
    34    19    41    1
    35    20    21   ar
    36    20    42    1
    37    21    22   ar
    38    21    24    1
    39    22    23   ar
    40    22    43    1
    41    23    44    1
    42    24    45    1
    43    26    46    1
    44    27    47    1
    45    28    48    1
    46    29    49    1
    47    30    50    1
    48     1    31    1
    49     1    27    1
    50     2    32    1
    51     2    28    1
    52     4    34    1
    53     4    30    1
