@<TRIPOS>MOLECULE
*****
 50 53 0 0 0
SMALL
GASTEIGER

@<TRIPOS>ATOM
     1 C         -0.393361   -1.378759   1.647754 C.3        1 UNL1     0.1889
     2 C         -0.49293   -0.967915   0.154023 C.3        1 UNL1     0.1342
     3 C         -1.925346   -0.894015   -0.396601 C.3        1 UNL1     0.1174
     4 C         -2.850697   -1.95012   0.212895 C.3        1 UNL1     0.1456
     5 C         -2.720937   -2.035278   1.74465 C.3        1 UNL1     0.2326
     6 O         -1.367805   -2.30564   2.103547 O.3        1 UNL1     -0.3076
     7 O         -3.271579   -0.896264   2.430771 O.3        1 UNL1     -0.4605
     8 C         -3.815072   -1.144554   3.678367 C.ar        1 UNL1     0.1310
     9 C         -4.900014   -1.989412   3.93608 C.ar        1 UNL1     0.0226
     10 C         -5.367567   -2.189596   5.240389 C.ar        1 UNL1     0.1343
     11 C         -4.745794   -1.567697   6.322277 C.ar        1 UNL1     0.1007
     12 C         -3.687477   -0.689738   6.073404 C.ar        1 UNL1     0.1389
     13 C         -3.219227   -0.486567   4.761576 C.ar        1 UNL1     0.0229
     14 C         -5.145012   -1.80896   7.728182 C.2        1 UNL1     0.1740
     15 C         -4.230117   -1.235957   8.770383 C.3        1 UNL1     0.0520
     16 C         -3.778365   0.142932   8.30936 C.3        1 UNL1     0.1322
     17 O         -3.073135   0.057484   7.051418 O.3        1 UNL1     -0.4828
     18 C         -4.886447   1.198208   8.344986 C.ar        1 UNL1     -0.0067
     19 C         -5.485018   1.532563   9.577111 C.ar        1 UNL1     -0.0516
     20 C         -6.533188   2.458584   9.638656 C.ar        1 UNL1     -0.0198
     21 C         -6.99572   3.050341   8.476883 C.ar        1 UNL1     0.1169
     22 C         -6.404306   2.766593   7.252728 C.ar        1 UNL1     -0.0198
     23 C         -5.343864   1.854463   7.19325 C.ar        1 UNL1     -0.0516
     24 O         -8.04321   3.918832   8.571166 O.3        1 UNL1     -0.5068
     25 O         -6.110779   -2.496963   8.048232 O.2        1 UNL1     -0.2917
     26 O         -6.430423   -3.025215   5.423864 O.3        1 UNL1     -0.5058
     27 O         -0.266943   -0.275245   2.530398 O.3        1 UNL1     -0.3648
     28 O         0.21959   -1.939042   -0.634605 O.3        1 UNL1     -0.3841
     29 O         -2.445797   0.431715   -0.279541 O.3        1 UNL1     -0.3863
     30 O         -2.533533   -3.240768   -0.352192 O.3        1 UNL1     -0.3829
     31 H         0.550442   -1.923447   1.760139 H        1 UNL1     0.0937
     32 H         0.0   0.0   0.0 H        1 UNL1     0.0671
     33 H         -1.880511   -1.095606   -1.475985 H        1 UNL1     0.0649
     34 H         -3.891636   -1.732008   -0.050306 H        1 UNL1     0.0683
     35 H         -3.305322   -2.925032   2.010563 H        1 UNL1     0.1085
     36 H         -5.390592   -2.545134   3.144482 H        1 UNL1     0.0691
     37 H         -2.394492   0.202875   4.59432 H        1 UNL1     0.0691
     38 H         -3.378294   -1.916591   8.873644 H        1 UNL1     0.0385
     39 H         -4.757195   -1.199638   9.729887 H        1 UNL1     0.0385
     40 H         -3.021741   0.491776   9.025145 H        1 UNL1     0.0789
     41 H         -5.14616   1.075074   10.50206 H        1 UNL1     0.0623
     42 H         -6.994461   2.699155   10.59331 H        1 UNL1     0.0654
     43 H         -6.748708   3.235583   6.338756 H        1 UNL1     0.0654
     44 H         -4.89843   1.66438   6.221498 H        1 UNL1     0.0623
     45 H         -8.504292   3.753373   9.409464 H        1 UNL1     0.2921
     46 H         -6.255004   -3.611205   6.177028 H        1 UNL1     0.2922
     47 H         -1.141101   0.045735   2.792467 H        1 UNL1     0.2126
     48 H         -0.328973   -2.115952   -1.422967 H        1 UNL1     0.2101
     49 H         -3.002644   0.498908   0.512419 H        1 UNL1     0.2100
     50 H         -2.007683   -3.738006   0.308072 H        1 UNL1     0.2102
@<TRIPOS>BOND
     1     1     2    1
     2     1     6    1
     3     2     3    1
     4     3     4    1
     5     3    29    1
     6     3    33    1
     7     4     5    1
     8     5     6    1
     9     5     7    1
    10     5    35    1
    11     7     8    1
    12     8     9   ar
    13     8    13   ar
    14     9    10   ar
    15     9    36    1
    16    10    11   ar
    17    10    26    1
    18    11    12   ar
    19    11    14    1
    20    12    13   ar
    21    12    17    1
    22    13    37    1
    23    14    15    1
    24    14    25    2
    25    15    16    1
    26    15    38    1
    27    15    39    1
    28    16    17    1
    29    16    18    1
    30    16    40    1
    31    18    19   ar
    32    18    23   ar
    33    19    20   ar
    34    19    41    1
    35    20    21   ar
    36    20    42    1
    37    21    22   ar
    38    21    24    1
    39    22    23   ar
    40    22    43    1
    41    23    44    1
    42    24    45    1
    43    26    46    1
    44    27    47    1
    45    28    48    1
    46    29    49    1
    47    30    50    1
    48     1    31    1
    49     1    27    1
    50     2    32    1
    51     2    28    1
    52     4    34    1
    53     4    30    1
