@<TRIPOS>MOLECULE
*****
 50 53 0 0 0
SMALL
GASTEIGER

@<TRIPOS>ATOM
     1 C         -1.605546   -1.425501   -0.401216 C.3        1 UNL1     0.1889
     2 C         -0.777054   -0.533134   0.561708 C.3        1 UNL1     0.1342
     3 C         -0.123127   -1.285943   1.730521 C.3        1 UNL1     0.1174
     4 C         -0.980066   -2.446286   2.242748 C.3        1 UNL1     0.1456
     5 C         -1.531884   -3.320879   1.102157 C.3        1 UNL1     0.2326
     6 O         -2.286398   -2.519056   0.196256 O.3        1 UNL1     -0.3076
     7 O         -0.524416   -4.115504   0.450313 O.3        1 UNL1     -0.4605
     8 C         -0.0816   -3.647795   -0.773897 C.ar        1 UNL1     0.1310
     9 C         -0.529475   -2.483153   -1.406602 C.ar        1 UNL1     0.0226
     10 C         -0.00554   -2.083258   -2.641704 C.ar        1 UNL1     0.1343
     11 C         0.997021   -2.826397   -3.263362 C.ar        1 UNL1     0.1007
     12 C         1.423221   -4.013144   -2.661059 C.ar        1 UNL1     0.1389
     13 C         0.894367   -4.416418   -1.420449 C.ar        1 UNL1     0.0229
     14 C         1.645152   -2.405684   -4.527119 C.2        1 UNL1     0.1740
     15 C         2.850839   -3.200642   -4.934439 C.3        1 UNL1     0.0520
     16 C         2.579525   -4.670337   -4.644025 C.3        1 UNL1     0.1322
     17 O         2.326038   -4.876679   -3.236816 O.3        1 UNL1     -0.4828
     18 C         1.540855   -5.30082   -5.574821 C.ar        1 UNL1     -0.0067
     19 C         1.89819   -6.420326   -6.354071 C.ar        1 UNL1     -0.0516
     20 C         0.987241   -6.991916   -7.250407 C.ar        1 UNL1     -0.0198
     21 C         -0.278805   -6.449977   -7.381779 C.ar        1 UNL1     0.1169
     22 C         -0.671221   -5.368464   -6.603848 C.ar        1 UNL1     -0.0198
     23 C         0.233403   -4.808125   -5.69405 C.ar        1 UNL1     -0.0516
     24 O         -1.126132   -7.009934   -8.292211 O.3        1 UNL1     -0.5068
     25 O         1.28917   -1.42541   -5.175828 O.2        1 UNL1     -0.2917
     26 O         -0.486097   -0.937857   -3.206246 O.3        1 UNL1     -0.5058
     27 O         -0.889573   -1.823968   -1.559402 O.3        1 UNL1     -0.3648
     28 O         -1.651137   0.46091   1.127889 O.3        1 UNL1     -0.3841
     29 O         1.207006   -1.686303   1.394978 O.3        1 UNL1     -0.3863
     30 O         -2.089884   -1.917155   3.000385 O.3        1 UNL1     -0.3829
     31 H         -2.416861   -0.799166   -0.787935 H        1 UNL1     0.0937
     32 H         0.0   0.0   0.0 H        1 UNL1     0.0671
     33 H         -0.013392   -0.579351   2.56503 H        1 UNL1     0.0649
     34 H         -0.394076   -3.070701   2.926212 H        1 UNL1     0.0683
     35 H         -2.242106   -3.991005   1.602553 H        1 UNL1     0.1085
     36 H         -1.266462   -1.832707   -0.948463 H        1 UNL1     0.0691
     37 H         1.242172   -5.345021   -0.972988 H        1 UNL1     0.0691
     38 H         3.702114   -2.833429   -4.351332 H        1 UNL1     0.0385
     39 H         3.058796   -3.019583   -5.99451 H        1 UNL1     0.0385
     40 H         3.512774   -5.216242   -4.837817 H        1 UNL1     0.0789
     41 H         2.888876   -6.858619   -6.276021 H        1 UNL1     0.0623
     42 H         1.278672   -7.847657   -7.854383 H        1 UNL1     0.0654
     43 H         -1.665215   -4.945576   -6.68783 H        1 UNL1     0.0654
     44 H         -0.110379   -3.970529   -5.094807 H        1 UNL1     0.0623
     45 H         -0.608382   -7.278234   -9.068528 H        1 UNL1     0.2921
     46 H         -0.997368   -1.158599   -4.000782 H        1 UNL1     0.2922
     47 H         -1.483724   -2.257881   -2.187544 H        1 UNL1     0.2126
     48 H         -1.251627   1.329855   0.930252 H        1 UNL1     0.2101
     49 H         1.495738   -2.400069   1.985711 H        1 UNL1     0.2100
     50 H         -2.06466   -2.319662   3.893169 H        1 UNL1     0.2102
@<TRIPOS>BOND
     1     1     2    1
     2     1     6    1
     3     2     3    1
     4     3     4    1
     5     3    29    1
     6     3    33    1
     7     4     5    1
     8     5     6    1
     9     5     7    1
    10     5    35    1
    11     7     8    1
    12     8     9   ar
    13     8    13   ar
    14     9    10   ar
    15     9    36    1
    16    10    11   ar
    17    10    26    1
    18    11    12   ar
    19    11    14    1
    20    12    13   ar
    21    12    17    1
    22    13    37    1
    23    14    15    1
    24    14    25    2
    25    15    16    1
    26    15    38    1
    27    15    39    1
    28    16    17    1
    29    16    18    1
    30    16    40    1
    31    18    19   ar
    32    18    23   ar
    33    19    20   ar
    34    19    41    1
    35    20    21   ar
    36    20    42    1
    37    21    22   ar
    38    21    24    1
    39    22    23   ar
    40    22    43    1
    41    23    44    1
    42    24    45    1
    43    26    46    1
    44    27    47    1
    45    28    48    1
    46    29    49    1
    47    30    50    1
    48     1    31    1
    49     1    27    1
    50     2    32    1
    51     2    28    1
    52     4    34    1
    53     4    30    1
