@<TRIPOS>MOLECULE
*****
 50 53 0 0 0
SMALL
GASTEIGER

@<TRIPOS>ATOM
     1 C         1.049399   -1.753562   -0.771093 C.3        1 UNL1     0.1889
     2 C         -0.217637   -0.866773   -0.636318 C.3        1 UNL1     0.1342
     3 C         -1.454016   -1.594333   -0.086329 C.3        1 UNL1     0.1174
     4 C         -1.535429   -3.053489   -0.541688 C.3        1 UNL1     0.1456
     5 C         -0.194457   -3.794644   -0.390537 C.3        1 UNL1     0.2326
     6 O         0.823237   -3.111588   -1.118961 O.3        1 UNL1     -0.3076
     7 O         0.166336   -4.053405   0.978474 O.3        1 UNL1     -0.4605
     8 C         0.899555   -5.204319   1.204999 C.ar        1 UNL1     0.1310
     9 C         0.619955   -6.463195   0.662453 C.ar        1 UNL1     0.0226
     10 C         1.434682   -7.567598   0.938883 C.ar        1 UNL1     0.1343
     11 C         2.563521   -7.434522   1.746258 C.ar        1 UNL1     0.1007
     12 C         2.829818   -6.191643   2.32688 C.ar        1 UNL1     0.1389
     13 C         2.008963   -5.08193   2.050903 C.ar        1 UNL1     0.0229
     14 C         3.505588   -8.548336   2.003321 C.2        1 UNL1     0.1740
     15 C         4.777682   -8.173809   2.705501 C.3        1 UNL1     0.0520
     16 C         4.447653   -7.15966   3.792027 C.3        1 UNL1     0.1322
     17 O         3.851038   -5.973664   3.222347 O.3        1 UNL1     -0.4828
     18 C         3.677044   -7.752116   4.974348 C.ar        1 UNL1     -0.0067
     19 C         2.520344   -7.097376   5.445065 C.ar        1 UNL1     -0.0516
     20 C         1.81921   -7.586228   6.553847 C.ar        1 UNL1     -0.0198
     21 C         2.267766   -8.722185   7.203635 C.ar        1 UNL1     0.1169
     22 C         3.384375   -9.407892   6.743387 C.ar        1 UNL1     -0.0198
     23 C         4.075061   -8.929692   5.623417 C.ar        1 UNL1     -0.0516
     24 O         1.580996   -9.147138   8.3028 O.3        1 UNL1     -0.5068
     25 O         3.319627   -9.696101   1.607671 O.2        1 UNL1     -0.2917
     26 O         1.106461   -8.767903   0.379308 O.3        1 UNL1     -0.5058
     27 O         1.941418   -1.635449   0.325784 O.3        1 UNL1     -0.3648
     28 O         -0.56209   -0.362323   -1.940001 O.3        1 UNL1     -0.3841
     29 O         -1.536284   -1.452161   1.333231 O.3        1 UNL1     -0.3863
     30 O         -1.934988   -3.095264   -1.928879 O.3        1 UNL1     -0.3829
     31 H         1.616121   -1.362003   -1.622907 H        1 UNL1     0.0937
     32 H         0.0   0.0   0.0 H        1 UNL1     0.0671
     33 H         -2.345115   -1.087613   -0.482433 H        1 UNL1     0.0649
     34 H         -2.306776   -3.581214   0.030091 H        1 UNL1     0.0683
     35 H         -0.362664   -4.752193   -0.899149 H        1 UNL1     0.1085
     36 H         -0.210525   -6.619508   -0.017247 H        1 UNL1     0.0691
     37 H         2.237152   -4.125456   2.516285 H        1 UNL1     0.0691
     38 H         5.454751   -7.74602   1.958439 H        1 UNL1     0.0385
     39 H         5.243489   -9.07839   3.111132 H        1 UNL1     0.0385
     40 H         5.401669   -6.812672   4.211518 H        1 UNL1     0.0789
     41 H         2.153113   -6.198749   4.95797 H        1 UNL1     0.0623
     42 H         0.935481   -7.065681   6.914492 H        1 UNL1     0.0654
     43 H         3.735578   -10.306933   7.23562 H        1 UNL1     0.0654
     44 H         4.937067   -9.496414   5.284866 H        1 UNL1     0.0623
     45 H         1.605307   -8.44295   8.970816 H        1 UNL1     0.2921
     46 H         1.857104   -9.0996   -0.138306 H        1 UNL1     0.2922
     47 H         2.194474   -0.710503   0.453446 H        1 UNL1     0.2126
     48 H         0.195296   0.175879   -2.240729 H        1 UNL1     0.2101
     49 H         -1.746639   -0.532599   1.561158 H        1 UNL1     0.2100
     50 H         -2.848793   -2.747512   -1.990039 H        1 UNL1     0.2102
@<TRIPOS>BOND
     1     1     2    1
     2     1     6    1
     3     2     3    1
     4     3     4    1
     5     3    29    1
     6     3    33    1
     7     4     5    1
     8     5     6    1
     9     5     7    1
    10     5    35    1
    11     7     8    1
    12     8     9   ar
    13     8    13   ar
    14     9    10   ar
    15     9    36    1
    16    10    11   ar
    17    10    26    1
    18    11    12   ar
    19    11    14    1
    20    12    13   ar
    21    12    17    1
    22    13    37    1
    23    14    15    1
    24    14    25    2
    25    15    16    1
    26    15    38    1
    27    15    39    1
    28    16    17    1
    29    16    18    1
    30    16    40    1
    31    18    19   ar
    32    18    23   ar
    33    19    20   ar
    34    19    41    1
    35    20    21   ar
    36    20    42    1
    37    21    22   ar
    38    21    24    1
    39    22    23   ar
    40    22    43    1
    41    23    44    1
    42    24    45    1
    43    26    46    1
    44    27    47    1
    45    28    48    1
    46    29    49    1
    47    30    50    1
    48     1    31    1
    49     1    27    1
    50     2    32    1
    51     2    28    1
    52     4    34    1
    53     4    30    1
