@<TRIPOS>MOLECULE
*****
 50 53 0 0 0
SMALL
GASTEIGER

@<TRIPOS>ATOM
     1 C         -0.345569   -1.336324   1.692815 C.3        1 UNL1     0.1889
     2 C         -0.469086   -0.973659   0.188436 C.3        1 UNL1     0.1342
     3 C         -1.90812   -0.94903   -0.349189 C.3        1 UNL1     0.1174
     4 C         -2.803032   -2.006681   0.301675 C.3        1 UNL1     0.1456
     5 C         -2.656428   -2.042051   1.833869 C.3        1 UNL1     0.2326
     6 O         -1.29402   -2.27065   2.186649 O.3        1 UNL1     -0.3076
     7 O         -3.226322   -0.895355   2.490854 O.3        1 UNL1     -0.4605
     8 C         -3.741606   -1.115232   3.755632 C.ar        1 UNL1     0.1310
     9 C         -4.565872   -2.185312   4.12007 C.ar        1 UNL1     0.0226
     10 C         -5.0241   -2.330775   5.434897 C.ar        1 UNL1     0.1343
     11 C         -4.649354   -1.421889   6.423498 C.ar        1 UNL1     0.1007
     12 C         -3.860138   -0.326512   6.062842 C.ar        1 UNL1     0.1389
     13 C         -3.401689   -0.17902   4.740155 C.ar        1 UNL1     0.0229
     14 C         -5.035673   -1.573894   7.8454 C.2        1 UNL1     0.1740
     15 C         -4.364018   -0.635589   8.804572 C.3        1 UNL1     0.0520
     16 C         -4.283986   0.739852   8.156718 C.3        1 UNL1     0.1322
     17 O         -3.52168   0.685646   6.930741 O.3        1 UNL1     -0.4828
     18 C         -5.638468   1.441492   8.031002 C.ar        1 UNL1     -0.0067
     19 C         -6.008729   2.01653   6.797936 C.ar        1 UNL1     -0.0516
     20 C         -7.219255   2.706494   6.661781 C.ar        1 UNL1     -0.0198
     21 C         -8.062927   2.834416   7.750671 C.ar        1 UNL1     0.1169
     22 C         -7.741444   2.250403   8.969037 C.ar        1 UNL1     -0.0198
     23 C         -6.539536   1.544577   9.100509 C.ar        1 UNL1     -0.0516
     24 O         -9.215646   3.545701   7.590318 O.3        1 UNL1     -0.5068
     25 O         -5.791312   -2.453356   8.250421 O.2        1 UNL1     -0.2917
     26 O         -5.826045   -3.395881   5.724759 O.3        1 UNL1     -0.5058
     27 O         -0.235883   -0.203785   2.540229 O.3        1 UNL1     -0.3648
     28 O         0.257787   -1.95206   -0.577784 O.3        1 UNL1     -0.3841
     29 O         -2.45766   0.367547   -0.266948 O.3        1 UNL1     -0.3863
     30 O         -2.461887   -3.306486   -0.227304 O.3        1 UNL1     -0.3829
     31 H         0.611523   -1.855839   1.811802 H        1 UNL1     0.0937
     32 H         0.0   0.0   0.0 H        1 UNL1     0.0671
     33 H         -1.869199   -1.182434   -1.422375 H        1 UNL1     0.0649
     34 H         -3.851213   -1.820311   0.042866 H        1 UNL1     0.0683
     35 H         -3.217643   -2.936257   2.132723 H        1 UNL1     0.1085
     36 H         -4.846812   -2.956006   3.410688 H        1 UNL1     0.0691
     37 H         -2.7894   0.68317   4.484767 H        1 UNL1     0.0691
     38 H         -3.364817   -1.033221   9.011964 H        1 UNL1     0.0385
     39 H         -4.927178   -0.618693   9.743904 H        1 UNL1     0.0385
     40 H         -3.68725   1.377315   8.823101 H        1 UNL1     0.0789
     41 H         -5.35966   1.937875   5.930657 H        1 UNL1     0.0623
     42 H         -7.488014   3.155706   5.708897 H        1 UNL1     0.0654
     43 H         -8.401847   2.331603   9.82413 H        1 UNL1     0.0654
     44 H         -6.325277   1.092129   10.063955 H        1 UNL1     0.0623
     45 H         -8.982798   4.456111   7.346082 H        1 UNL1     0.2921
     46 H         -5.566443   -4.154468   5.178349 H        1 UNL1     0.2922
     47 H         0.508859   0.349121   2.265433 H        1 UNL1     0.2126
     48 H         1.193503   -1.880009   -0.307645 H        1 UNL1     0.2101
     49 H         -2.01902   0.948903   -0.908364 H        1 UNL1     0.2100
     50 H         -2.697455   -3.316345   -1.178158 H        1 UNL1     0.2102
@<TRIPOS>BOND
     1     1     2    1
     2     1     6    1
     3     2     3    1
     4     3     4    1
     5     3    29    1
     6     3    33    1
     7     4     5    1
     8     5     6    1
     9     5     7    1
    10     5    35    1
    11     7     8    1
    12     8     9   ar
    13     8    13   ar
    14     9    10   ar
    15     9    36    1
    16    10    11   ar
    17    10    26    1
    18    11    12   ar
    19    11    14    1
    20    12    13   ar
    21    12    17    1
    22    13    37    1
    23    14    15    1
    24    14    25    2
    25    15    16    1
    26    15    38    1
    27    15    39    1
    28    16    17    1
    29    16    18    1
    30    16    40    1
    31    18    19   ar
    32    18    23   ar
    33    19    20   ar
    34    19    41    1
    35    20    21   ar
    36    20    42    1
    37    21    22   ar
    38    21    24    1
    39    22    23   ar
    40    22    43    1
    41    23    44    1
    42    24    45    1
    43    26    46    1
    44    27    47    1
    45    28    48    1
    46    29    49    1
    47    30    50    1
    48     1    31    1
    49     1    27    1
    50     2    32    1
    51     2    28    1
    52     4    34    1
    53     4    30    1
