@<TRIPOS>MOLECULE
*****
 50 53 0 0 0
SMALL
GASTEIGER

@<TRIPOS>ATOM
     1 C         0.151386   1.465152   -1.612829 C.3        1 UNL1     0.1889
     2 C         0.126225   0.00374   -1.089777 C.3        1 UNL1     0.1342
     3 C         1.36505   -0.828973   -1.4536 C.3        1 UNL1     0.1174
     4 C         1.935617   -0.474233   -2.829002 C.3        1 UNL1     0.1456
     5 C         2.058343   1.045473   -3.043004 C.3        1 UNL1     0.2326
     6 O         0.7865   1.665396   -2.866992 O.3        1 UNL1     -0.3076
     7 O         3.097984   1.653214   -2.254894 O.3        1 UNL1     -0.4605
     8 C         3.495804   0.951208   -1.131303 C.ar        1 UNL1     0.1310
     9 C         2.69334   0.067458   -0.401688 C.ar        1 UNL1     0.0226
     10 C         3.194628   -0.611065   0.715549 C.ar        1 UNL1     0.1343
     11 C         4.518973   -0.440214   1.1165 C.ar        1 UNL1     0.1007
     12 C         5.318015   0.470768   0.420492 C.ar        1 UNL1     0.1389
     13 C         4.812957   1.154894   -0.701256 C.ar        1 UNL1     0.0229
     14 C         5.124535   -1.194808   2.238122 C.2        1 UNL1     0.1740
     15 C         6.610774   -1.053205   2.388433 C.3        1 UNL1     0.0520
     16 C         6.98509   0.399453   2.128378 C.3        1 UNL1     0.1322
     17 O         6.601301   0.79681   0.793506 O.3        1 UNL1     -0.4828
     18 C         6.531837   1.359421   3.230987 C.ar        1 UNL1     -0.0067
     19 C         6.429589   0.891916   4.557335 C.ar        1 UNL1     -0.0516
     20 C         5.972975   1.730343   5.581301 C.ar        1 UNL1     -0.0198
     21 C         5.609365   3.0332   5.291165 C.ar        1 UNL1     0.1169
     22 C         5.730716   3.532487   4.000884 C.ar        1 UNL1     -0.0198
     23 C         6.204789   2.699764   2.980158 C.ar        1 UNL1     -0.0516
     24 O         5.133326   3.808855   6.307112 O.3        1 UNL1     -0.5068
     25 O         4.488541   -1.956296   2.962093 O.2        1 UNL1     -0.2917
     26 O         2.359932   -1.458208   1.384291 O.3        1 UNL1     -0.5058
     27 O         0.593932   2.404189   -0.645797 O.3        1 UNL1     -0.3648
     28 O         -1.018628   -0.662806   -1.653454 O.3        1 UNL1     -0.3841
     29 O         2.343792   -0.762424   -0.414481 O.3        1 UNL1     -0.3863
     30 O         1.075865   -1.019227   -3.853453 O.3        1 UNL1     -0.3829
     31 H         -0.889719   1.746522   -1.805211 H        1 UNL1     0.0937
     32 H         0.0   0.0   0.0 H        1 UNL1     0.0671
     33 H         1.058843   -1.883442   -1.498901 H        1 UNL1     0.0649
     34 H         2.919996   -0.93807   -2.956495 H        1 UNL1     0.0683
     35 H         2.31651   1.143067   -4.104938 H        1 UNL1     0.1085
     36 H         1.672536   -0.150954   -0.695585 H        1 UNL1     0.0691
     37 H         5.455019   1.859629   -1.225276 H        1 UNL1     0.0691
     38 H         7.082459   -1.719409   1.658219 H        1 UNL1     0.0385
     39 H         6.903161   -1.382983   3.391196 H        1 UNL1     0.0385
     40 H         8.08206   0.455784   2.126885 H        1 UNL1     0.0789
     41 H         6.700171   -0.129355   4.809211 H        1 UNL1     0.0623
     42 H         5.887284   1.354563   6.597893 H        1 UNL1     0.0654
     43 H         5.463016   4.555637   3.765489 H        1 UNL1     0.0654
     44 H         6.296844   3.126086   1.985863 H        1 UNL1     0.0623
     45 H         5.061231   4.722776   5.98732 H        1 UNL1     0.2921
     46 H         1.632194   -1.723486   0.799965 H        1 UNL1     0.2922
     47 H         1.143372   1.966282   0.019194 H        1 UNL1     0.2126
     48 H         -1.80742   -0.189997   -1.324834 H        1 UNL1     0.2101
     49 H         2.526276   0.164365   -0.191873 H        1 UNL1     0.2100
     50 H         0.855748   -0.297183   -4.477882 H        1 UNL1     0.2102
@<TRIPOS>BOND
     1     1     2    1
     2     1     6    1
     3     2     3    1
     4     3     4    1
     5     3    29    1
     6     3    33    1
     7     4     5    1
     8     5     6    1
     9     5     7    1
    10     5    35    1
    11     7     8    1
    12     8     9   ar
    13     8    13   ar
    14     9    10   ar
    15     9    36    1
    16    10    11   ar
    17    10    26    1
    18    11    12   ar
    19    11    14    1
    20    12    13   ar
    21    12    17    1
    22    13    37    1
    23    14    15    1
    24    14    25    2
    25    15    16    1
    26    15    38    1
    27    15    39    1
    28    16    17    1
    29    16    18    1
    30    16    40    1
    31    18    19   ar
    32    18    23   ar
    33    19    20   ar
    34    19    41    1
    35    20    21   ar
    36    20    42    1
    37    21    22   ar
    38    21    24    1
    39    22    23   ar
    40    22    43    1
    41    23    44    1
    42    24    45    1
    43    26    46    1
    44    27    47    1
    45    28    48    1
    46    29    49    1
    47    30    50    1
    48     1    31    1
    49     1    27    1
    50     2    32    1
    51     2    28    1
    52     4    34    1
    53     4    30    1
