@<TRIPOS>MOLECULE
*****
 50 53 0 0 0
SMALL
GASTEIGER

@<TRIPOS>ATOM
     1 C         -0.286571   -1.342067   1.699276 C.3        1 UNL1     0.1889
     2 C         -0.444265   -0.983535   0.197101 C.3        1 UNL1     0.1342
     3 C         -1.892663   -0.990922   -0.315299 C.3        1 UNL1     0.1174
     4 C         -2.752668   -2.067349   0.351645 C.3        1 UNL1     0.1456
     5 C         -2.578587   -2.098132   1.881061 C.3        1 UNL1     0.2326
     6 O         -1.205541   -2.29651   2.210088 O.3        1 UNL1     -0.3076
     7 O         -3.161923   -0.963614   2.547324 O.3        1 UNL1     -0.4605
     8 C         -3.660305   -1.196243   3.816587 C.ar        1 UNL1     0.1310
     9 C         -4.461768   -2.281799   4.186079 C.ar        1 UNL1     0.0226
     10 C         -4.903911   -2.439162   5.505037 C.ar        1 UNL1     0.1343
     11 C         -4.535216   -1.526652   6.492575 C.ar        1 UNL1     0.1007
     12 C         -3.769204   -0.416435   6.127297 C.ar        1 UNL1     0.1389
     13 C         -3.326957   -0.257017   4.800484 C.ar        1 UNL1     0.0229
     14 C         -4.904255   -1.689593   7.917851 C.2        1 UNL1     0.1740
     15 C         -4.239534   -0.742327   8.873038 C.3        1 UNL1     0.0520
     16 C         -4.19044   0.636187   8.228642 C.3        1 UNL1     0.1322
     17 O         -3.439846   0.599037   6.994826 O.3        1 UNL1     -0.4828
     18 C         -5.558323   1.314098   8.118845 C.ar        1 UNL1     -0.0067
     19 C         -5.945103   1.899158   6.895603 C.ar        1 UNL1     -0.0516
     20 C         -7.16889   2.568228   6.774555 C.ar        1 UNL1     -0.0198
     21 C         -8.009582   2.66528   7.868925 C.ar        1 UNL1     0.1169
     22 C         -7.671473   2.070542   9.077564 C.ar        1 UNL1     -0.0198
     23 C         -6.45603   1.385518   9.193747 C.ar        1 UNL1     -0.0516
     24 O         -9.176084   3.35708   7.723717 O.3        1 UNL1     -0.5068
     25 O         -5.640061   -2.583464   8.327815 O.2        1 UNL1     -0.2917
     26 O         -5.683906   -3.519133   5.799747 O.3        1 UNL1     -0.5058
     27 O         -0.186958   -0.206641   2.544067 O.3        1 UNL1     -0.3648
     28 O         0.290391   -1.946457   -0.58121 O.3        1 UNL1     -0.3841
     29 O         -2.469415   0.31337   -0.224134 O.3        1 UNL1     -0.3863
     30 O         -2.392399   -3.359837   -0.182555 O.3        1 UNL1     -0.3829
     31 H         0.683613   -1.840379   1.801778 H        1 UNL1     0.0937
     32 H         0.0   0.0   0.0 H        1 UNL1     0.0671
     33 H         -1.867383   -1.224374   -1.388883 H        1 UNL1     0.0649
     34 H         -3.809043   -1.904221   0.111103 H        1 UNL1     0.0683
     35 H         -3.114757   -3.004154   2.190133 H        1 UNL1     0.1085
     36 H         -4.736269   -3.055288   3.477218 H        1 UNL1     0.0691
     37 H         -2.732639   0.616614   4.541548 H        1 UNL1     0.0691
     38 H         -3.231397   -1.122807   9.06905 H        1 UNL1     0.0385
     39 H         -4.793288   -0.738126   9.818087 H        1 UNL1     0.0385
     40 H         -3.598292   1.28218   8.89089 H        1 UNL1     0.0789
     41 H         -5.298836   1.844656   6.024386 H        1 UNL1     0.0623
     42 H         -7.450508   3.025507   5.829251 H        1 UNL1     0.0654
     43 H         -8.329178   2.127544   9.936682 H        1 UNL1     0.0654
     44 H         -6.228791   0.92384   10.149812 H        1 UNL1     0.0623
     45 H         -8.961026   4.280187   7.513146 H        1 UNL1     0.2921
     46 H         -5.269912   -4.032685   6.511284 H        1 UNL1     0.2922
     47 H         0.529974   0.370501   2.246115 H        1 UNL1     0.2126
     48 H         1.231572   -1.838136   -0.344193 H        1 UNL1     0.2101
     49 H         -2.054894   0.903625   -0.873414 H        1 UNL1     0.2100
     50 H         -2.644265   -3.375703   -1.129141 H        1 UNL1     0.2102
@<TRIPOS>BOND
     1     1     2    1
     2     1     6    1
     3     2     3    1
     4     3     4    1
     5     3    29    1
     6     3    33    1
     7     4     5    1
     8     5     6    1
     9     5     7    1
    10     5    35    1
    11     7     8    1
    12     8     9   ar
    13     8    13   ar
    14     9    10   ar
    15     9    36    1
    16    10    11   ar
    17    10    26    1
    18    11    12   ar
    19    11    14    1
    20    12    13   ar
    21    12    17    1
    22    13    37    1
    23    14    15    1
    24    14    25    2
    25    15    16    1
    26    15    38    1
    27    15    39    1
    28    16    17    1
    29    16    18    1
    30    16    40    1
    31    18    19   ar
    32    18    23   ar
    33    19    20   ar
    34    19    41    1
    35    20    21   ar
    36    20    42    1
    37    21    22   ar
    38    21    24    1
    39    22    23   ar
    40    22    43    1
    41    23    44    1
    42    24    45    1
    43    26    46    1
    44    27    47    1
    45    28    48    1
    46    29    49    1
    47    30    50    1
    48     1    31    1
    49     1    27    1
    50     2    32    1
    51     2    28    1
    52     4    34    1
    53     4    30    1
