@<TRIPOS>MOLECULE
*****
 50 53 0 0 0
SMALL
GASTEIGER

@<TRIPOS>ATOM
     1 C         2.01444   0.64172   0.548661 C.3        1 UNL1     0.1889
     2 C         0.529776   0.348944   0.895063 C.3        1 UNL1     0.1342
     3 C         -0.234396   1.537537   1.498183 C.3        1 UNL1     0.1174
     4 C         0.644348   2.416048   2.392131 C.3        1 UNL1     0.1456
     5 C         2.00153   2.746011   1.744408 C.3        1 UNL1     0.2326
     6 O         2.689219   1.540952   1.416101 O.3        1 UNL1     -0.3076
     7 O         1.901151   3.659898   0.637134 O.3        1 UNL1     -0.4605
     8 C         3.011721   4.44997   0.400602 C.ar        1 UNL1     0.1310
     9 C         3.791501   5.067247   1.38458 C.ar        1 UNL1     0.0226
     10 C         4.910688   5.836318   1.04421 C.ar        1 UNL1     0.1343
     11 C         5.291489   5.987303   -0.288469 C.ar        1 UNL1     0.1007
     12 C         4.49699   5.409619   -1.28237 C.ar        1 UNL1     0.1389
     13 C         3.370182   4.638563   -0.940017 C.ar        1 UNL1     0.0229
     14 C         6.512232   6.718871   -0.699259 C.2        1 UNL1     0.1740
     15 C         6.88872   6.592743   -2.146289 C.3        1 UNL1     0.0520
     16 C         5.617815   6.656869   -2.98214 C.3        1 UNL1     0.1322
     17 O         4.717134   5.58396   -2.628998 O.3        1 UNL1     -0.4828
     18 C         4.970791   8.043609   -3.014295 C.ar        1 UNL1     -0.0067
     19 C         3.983218   8.324801   -3.980651 C.ar        1 UNL1     -0.0516
     20 C         3.405397   9.596981   -4.068079 C.ar        1 UNL1     -0.0198
     21 C         3.810933   10.596341   -3.20168 C.ar        1 UNL1     0.1169
     22 C         4.757113   10.340678   -2.217699 C.ar        1 UNL1     -0.0198
     23 C         5.32174   9.063442   -2.118098 C.ar        1 UNL1     -0.0516
     24 O         3.253237   11.833218   -3.341363 O.3        1 UNL1     -0.5068
     25 O         7.231594   7.329116   0.087255 O.2        1 UNL1     -0.2917
     26 O         5.628306   6.412606   2.051435 O.3        1 UNL1     -0.5058
     27 O         2.221862   0.974318   -0.814842 O.3        1 UNL1     -0.3648
     28 O         0.488444   -0.720168   1.858388 O.3        1 UNL1     -0.3841
     29 O         -0.903181   2.28098   0.477324 O.3        1 UNL1     -0.3863
     30 O         0.880664   1.732883   3.642383 O.3        1 UNL1     -0.3829
     31 H         2.55838   -0.299737   0.682331 H        1 UNL1     0.0937
     32 H         -0.0   0.0   0.0 H        1 UNL1     0.0671
     33 H         -1.033177   1.133848   2.135917 H        1 UNL1     0.0649
     34 H         0.121049   3.348675   2.630387 H        1 UNL1     0.0683
     35 H         2.569155   3.227724   2.550407 H        1 UNL1     0.1085
     36 H         3.580579   4.942102   2.440976 H        1 UNL1     0.0691
     37 H         2.767496   4.200327   -1.732615 H        1 UNL1     0.0691
     38 H         7.397077   5.631033   -2.273622 H        1 UNL1     0.0385
     39 H         7.594614   7.389569   -2.404285 H        1 UNL1     0.0385
     40 H         5.902946   6.44507   -4.021545 H        1 UNL1     0.0789
     41 H         3.654318   7.560026   -4.678215 H        1 UNL1     0.0623
     42 H         2.653414   9.80474   -4.825291 H        1 UNL1     0.0654
     43 H         5.071008   11.111818   -1.524356 H        1 UNL1     0.0654
     44 H         6.050336   8.896108   -1.330702 H        1 UNL1     0.0623
     45 H         2.347725   11.725483   -3.674767 H        1 UNL1     0.2921
     46 H         5.496957   7.373767   2.033324 H        1 UNL1     0.2922
     47 H         2.138861   1.929615   -0.942818 H        1 UNL1     0.2126
     48 H         0.551811   -1.553905   1.35381 H        1 UNL1     0.2101
     49 H         -1.782717   2.549639   0.787216 H        1 UNL1     0.2100
     50 H         0.099056   1.173876   3.832941 H        1 UNL1     0.2102
@<TRIPOS>BOND
     1     1     2    1
     2     1     6    1
     3     2     3    1
     4     3     4    1
     5     3    29    1
     6     3    33    1
     7     4     5    1
     8     5     6    1
     9     5     7    1
    10     5    35    1
    11     7     8    1
    12     8     9   ar
    13     8    13   ar
    14     9    10   ar
    15     9    36    1
    16    10    11   ar
    17    10    26    1
    18    11    12   ar
    19    11    14    1
    20    12    13   ar
    21    12    17    1
    22    13    37    1
    23    14    15    1
    24    14    25    2
    25    15    16    1
    26    15    38    1
    27    15    39    1
    28    16    17    1
    29    16    18    1
    30    16    40    1
    31    18    19   ar
    32    18    23   ar
    33    19    20   ar
    34    19    41    1
    35    20    21   ar
    36    20    42    1
    37    21    22   ar
    38    21    24    1
    39    22    23   ar
    40    22    43    1
    41    23    44    1
    42    24    45    1
    43    26    46    1
    44    27    47    1
    45    28    48    1
    46    29    49    1
    47    30    50    1
    48     1    31    1
    49     1    27    1
    50     2    32    1
    51     2    28    1
    52     4    34    1
    53     4    30    1
