@<TRIPOS>MOLECULE
*****
 50 53 0 0 0
SMALL
GASTEIGER

@<TRIPOS>ATOM
     1 C         -0.379786   -1.433586   1.603558 C.3        1 UNL1     0.1889
     2 C         -0.423223   -1.005949   0.111855 C.3        1 UNL1     0.1342
     3 C         -1.822039   -1.034515   -0.522939 C.3        1 UNL1     0.1174
     4 C         -2.695474   -2.170003   0.016408 C.3        1 UNL1     0.1456
     5 C         -2.649939   -2.271298   1.551995 C.3        1 UNL1     0.2326
     6 O         -1.303212   -2.44143   1.988173 O.3        1 UNL1     -0.3076
     7 O         -3.32825   -1.19078   2.218099 O.3        1 UNL1     -0.4605
     8 C         -3.923063   -1.502295   3.427513 C.ar        1 UNL1     0.1310
     9 C         -4.712796   -2.630193   3.675442 C.ar        1 UNL1     0.0226
     10 C         -5.258535   -2.867236   4.942677 C.ar        1 UNL1     0.1343
     11 C         -5.007844   -1.993632   5.999942 C.ar        1 UNL1     0.1007
     12 C         -4.254664   -0.842471   5.754317 C.ar        1 UNL1     0.1389
     13 C         -3.708234   -0.602981   4.47937 C.ar        1 UNL1     0.0229
     14 C         -5.489547   -2.239182   7.379008 C.2        1 UNL1     0.1740
     15 C         -4.942617   -1.319724   8.431155 C.3        1 UNL1     0.0520
     16 C         -4.889558   0.090042   7.858701 C.3        1 UNL1     0.1322
     17 O         -4.036773   0.138623   6.693596 O.3        1 UNL1     -0.4828
     18 C         -6.267069   0.72811   7.663625 C.ar        1 UNL1     -0.0067
     19 C         -6.360534   2.010964   7.085903 C.ar        1 UNL1     -0.0516
     20 C         -7.600823   2.642924   6.936665 C.ar        1 UNL1     -0.0198
     21 C         -8.75164   2.007055   7.366921 C.ar        1 UNL1     0.1169
     22 C         -8.695341   0.729662   7.90908 C.ar        1 UNL1     -0.0198
     23 C         -7.457125   0.089866   8.041522 C.ar        1 UNL1     -0.0516
     24 O         -9.937351   2.669145   7.239938 O.3        1 UNL1     -0.5068
     25 O         -6.224286   -3.17563   7.681843 O.2        1 UNL1     -0.2917
     26 O         -6.02079   -3.985141   5.118289 O.3        1 UNL1     -0.5058
     27 O         -0.393116   -0.339027   2.506083 O.3        1 UNL1     -0.3648
     28 O         0.408972   -1.904711   -0.644706 O.3        1 UNL1     -0.3841
     29 O         -2.45149   0.244336   -0.420645 O.3        1 UNL1     -0.3863
     30 O         -2.244674   -3.421985   -0.544849 O.3        1 UNL1     -0.3829
     31 H         0.595788   -1.904834   1.765607 H        1 UNL1     0.0937
     32 H         0.0   0.0   0.0 H        1 UNL1     0.0671
     33 H         -1.69787   -1.213265   -1.600135 H        1 UNL1     0.0649
     34 H         -3.733045   -2.029252   -0.30614 H        1 UNL1     0.0683
     35 H         -3.176938   -3.208411   1.771016 H        1 UNL1     0.1085
     36 H         -4.898242   -3.375863   2.910128 H        1 UNL1     0.0691
     37 H         -3.126381   0.301177   4.313724 H        1 UNL1     0.0691
     38 H         -3.94142   -1.676781   8.69505 H        1 UNL1     0.0385
     39 H         -5.573853   -1.380464   9.324257 H        1 UNL1     0.0385
     40 H         -4.37924   0.721009   8.598955 H        1 UNL1     0.0789
     41 H         -5.470948   2.534896   6.748586 H        1 UNL1     0.0623
     42 H         -7.658571   3.637156   6.500568 H        1 UNL1     0.0654
     43 H         -9.591981   0.216421   8.235469 H        1 UNL1     0.0654
     44 H         -7.451406   -0.912146   8.459595 H        1 UNL1     0.0623
     45 H         -9.899248   3.473295   7.782716 H        1 UNL1     0.2921
     46 H         -5.662791   -4.508758   5.852506 H        1 UNL1     0.2922
     47 H         0.324909   0.275062   2.298249 H        1 UNL1     0.2126
     48 H         1.322256   -1.778031   -0.322842 H        1 UNL1     0.2101
     49 H         -2.005677   0.879175   -1.003761 H        1 UNL1     0.2100
     50 H         -2.415102   -3.398797   -1.509281 H        1 UNL1     0.2102
@<TRIPOS>BOND
     1     1     2    1
     2     1     6    1
     3     2     3    1
     4     3     4    1
     5     3    29    1
     6     3    33    1
     7     4     5    1
     8     5     6    1
     9     5     7    1
    10     5    35    1
    11     7     8    1
    12     8     9   ar
    13     8    13   ar
    14     9    10   ar
    15     9    36    1
    16    10    11   ar
    17    10    26    1
    18    11    12   ar
    19    11    14    1
    20    12    13   ar
    21    12    17    1
    22    13    37    1
    23    14    15    1
    24    14    25    2
    25    15    16    1
    26    15    38    1
    27    15    39    1
    28    16    17    1
    29    16    18    1
    30    16    40    1
    31    18    19   ar
    32    18    23   ar
    33    19    20   ar
    34    19    41    1
    35    20    21   ar
    36    20    42    1
    37    21    22   ar
    38    21    24    1
    39    22    23   ar
    40    22    43    1
    41    23    44    1
    42    24    45    1
    43    26    46    1
    44    27    47    1
    45    28    48    1
    46    29    49    1
    47    30    50    1
    48     1    31    1
    49     1    27    1
    50     2    32    1
    51     2    28    1
    52     4    34    1
    53     4    30    1
