@<TRIPOS>MOLECULE
*****
 50 53 0 0 0
SMALL
GASTEIGER

@<TRIPOS>ATOM
     1 C         -0.33504   -1.329697   1.700135 C.3        1 UNL1     0.1889
     2 C         -0.464073   -0.974899   0.194343 C.3        1 UNL1     0.1342
     3 C         -1.90457   -0.959547   -0.339695 C.3        1 UNL1     0.1174
     4 C         -2.792895   -2.018172   0.318569 C.3        1 UNL1     0.1456
     5 C         -2.642226   -2.045439   1.850534 C.3        1 UNL1     0.2326
     6 O         -1.277876   -2.266007   2.200913 O.3        1 UNL1     -0.3076
     7 O         -3.21577   -0.898229   2.503433 O.3        1 UNL1     -0.4605
     8 C         -3.726803   -1.114363   3.770579 C.ar        1 UNL1     0.1310
     9 C         -4.545154   -2.186476   4.1423 C.ar        1 UNL1     0.0226
     10 C         -4.999351   -2.327692   5.458987 C.ar        1 UNL1     0.1343
     11 C         -4.626318   -1.412299   6.442218 C.ar        1 UNL1     0.1007
     12 C         -3.843124   -0.315036   6.074247 C.ar        1 UNL1     0.1389
     13 C         -3.388736   -0.171828   4.749689 C.ar        1 UNL1     0.0229
     14 C         -5.008303   -1.559206   7.865826 C.2        1 UNL1     0.1740
     15 C         -4.338577   -0.61316   8.818725 C.3        1 UNL1     0.0520
     16 C         -4.266591   0.759482   8.164028 C.3        1 UNL1     0.1322
     17 O         -3.507166   0.702873   6.936373 O.3        1 UNL1     -0.4828
     18 C         -5.624636   1.454217   8.038404 C.ar        1 UNL1     -0.0067
     19 C         -6.0011   2.020736   6.803275 C.ar        1 UNL1     -0.0516
     20 C         -7.215168   2.704395   6.666855 C.ar        1 UNL1     -0.0198
     21 C         -8.056262   2.834472   7.757483 C.ar        1 UNL1     0.1169
     22 C         -7.728576   2.258674   8.978105 C.ar        1 UNL1     -0.0198
     23 C         -6.523067   1.559089   9.109954 C.ar        1 UNL1     -0.0516
     24 O         -9.212691   3.539583   7.59658 O.3        1 UNL1     -0.5068
     25 O         -5.758812   -2.440189   8.277033 O.2        1 UNL1     -0.2917
     26 O         -5.795594   -3.395088   5.756052 O.3        1 UNL1     -0.5058
     27 O         -0.228463   -0.192569   2.541782 O.3        1 UNL1     -0.3648
     28 O         0.265387   -1.953619   -0.569005 O.3        1 UNL1     -0.3841
     29 O         -2.460014   0.35485   -0.262405 O.3        1 UNL1     -0.3863
     30 O         -2.44706   -3.318928   -0.204998 O.3        1 UNL1     -0.3829
     31 H         0.624757   -1.844186   1.819171 H        1 UNL1     0.0937
     32 H         0.0   0.0   0.0 H        1 UNL1     0.0671
     33 H         -1.867299   -1.197965   -1.411837 H        1 UNL1     0.0649
     34 H         -3.842587   -1.837919   0.061556 H        1 UNL1     0.0683
     35 H         -3.198514   -2.940779   2.155146 H        1 UNL1     0.1085
     36 H         -4.824315   -2.961892   3.437374 H        1 UNL1     0.0691
     37 H         -2.781114   0.691945   4.488566 H        1 UNL1     0.0691
     38 H         -3.337013   -1.005146   9.025468 H        1 UNL1     0.0385
     39 H         -4.899415   -0.594326   9.759408 H        1 UNL1     0.0385
     40 H         -3.671129   1.402926   8.825788 H        1 UNL1     0.0789
     41 H         -5.354191   1.940259   5.93455 H        1 UNL1     0.0623
     42 H         -7.488743   3.147103   5.712299 H        1 UNL1     0.0654
     43 H         -8.386866   2.341577   9.834663 H        1 UNL1     0.0654
     44 H         -6.303945   1.112953   10.075249 H        1 UNL1     0.0623
     45 H         -8.984952   4.447455   7.338474 H        1 UNL1     0.2921
     46 H         -5.492147   -3.805309   6.58131 H        1 UNL1     0.2922
     47 H         0.515537   0.360323   2.264952 H        1 UNL1     0.2126
     48 H         1.198242   -1.889551   -0.287209 H        1 UNL1     0.2101
     49 H         -2.01987   0.937243   -0.901847 H        1 UNL1     0.2100
     50 H         -2.679778   -3.332564   -1.156507 H        1 UNL1     0.2102
@<TRIPOS>BOND
     1     1     2    1
     2     1     6    1
     3     2     3    1
     4     3     4    1
     5     3    29    1
     6     3    33    1
     7     4     5    1
     8     5     6    1
     9     5     7    1
    10     5    35    1
    11     7     8    1
    12     8     9   ar
    13     8    13   ar
    14     9    10   ar
    15     9    36    1
    16    10    11   ar
    17    10    26    1
    18    11    12   ar
    19    11    14    1
    20    12    13   ar
    21    12    17    1
    22    13    37    1
    23    14    15    1
    24    14    25    2
    25    15    16    1
    26    15    38    1
    27    15    39    1
    28    16    17    1
    29    16    18    1
    30    16    40    1
    31    18    19   ar
    32    18    23   ar
    33    19    20   ar
    34    19    41    1
    35    20    21   ar
    36    20    42    1
    37    21    22   ar
    38    21    24    1
    39    22    23   ar
    40    22    43    1
    41    23    44    1
    42    24    45    1
    43    26    46    1
    44    27    47    1
    45    28    48    1
    46    29    49    1
    47    30    50    1
    48     1    31    1
    49     1    27    1
    50     2    32    1
    51     2    28    1
    52     4    34    1
    53     4    30    1
