@<TRIPOS>MOLECULE
*****
 50 53 0 0 0
SMALL
GASTEIGER

@<TRIPOS>ATOM
     1 C         1.94095   -0.762903   0.64923 C.3        1 UNL1     0.1889
     2 C         0.47254   -0.343717   0.928508 C.3        1 UNL1     0.1342
     3 C         0.308759   0.740047   2.005121 C.3        1 UNL1     0.1174
     4 C         1.341278   0.621086   3.128896 C.3        1 UNL1     0.1456
     5 C         2.770613   0.409726   2.597207 C.3        1 UNL1     0.2326
     6 O         2.81451   -0.749776   1.768656 O.3        1 UNL1     -0.3076
     7 O         3.32589   1.577756   1.965785 O.3        1 UNL1     -0.4605
     8 C         4.448805   1.369009   1.18539 C.ar        1 UNL1     0.1310
     9 C         5.622544   2.12875   1.23468 C.ar        1 UNL1     0.0226
     10 C         6.715123   1.82684   0.413081 C.ar        1 UNL1     0.1343
     11 C         6.669135   0.742134   -0.461641 C.ar        1 UNL1     0.1007
     12 C         5.48761   0.001121   -0.549288 C.ar        1 UNL1     0.1389
     13 C         4.388219   0.306513   0.275032 C.ar        1 UNL1     0.0229
     14 C         7.823858   0.327314   -1.291517 C.2        1 UNL1     0.1740
     15 C         7.674396   -0.985867   -2.001987 C.3        1 UNL1     0.0520
     16 C         6.250996   -1.087276   -2.532652 C.3        1 UNL1     0.1322
     17 O         5.294733   -1.018824   -1.451938 O.3        1 UNL1     -0.4828
     18 C         5.95921   -0.139862   -3.698839 C.ar        1 UNL1     -0.0067
     19 C         5.582346   -0.67462   -4.947927 C.ar        1 UNL1     -0.0516
     20 C         5.354424   0.161029   -6.047793 C.ar        1 UNL1     -0.0198
     21 C         5.506869   1.529461   -5.913692 C.ar        1 UNL1     0.1169
     22 C         5.844422   2.088422   -4.687943 C.ar        1 UNL1     -0.0198
     23 C         6.054407   1.254401   -3.583239 C.ar        1 UNL1     -0.0516
     24 O         5.313383   2.308645   -7.016341 O.3        1 UNL1     -0.5068
     25 O         8.876748   0.957157   -1.348124 O.2        1 UNL1     -0.2917
     26 O         7.829969   2.607542   0.509028 O.3        1 UNL1     -0.5058
     27 O         2.513611   -0.105059   -0.469737 O.3        1 UNL1     -0.3648
     28 O         -0.256003   -1.503036   1.373379 O.3        1 UNL1     -0.3841
     29 O         0.280752   2.041118   1.414729 O.3        1 UNL1     -0.3863
     30 O         0.991945   -0.494381   3.977064 O.3        1 UNL1     -0.3829
     31 H         1.914808   -1.818418   0.357199 H        1 UNL1     0.0937
     32 H         0.0   0.0   0.0 H        1 UNL1     0.0671
     33 H         -0.679826   0.60768   2.46653 H        1 UNL1     0.0649
     34 H         1.317587   1.519737   3.755207 H        1 UNL1     0.0683
     35 H         3.356312   0.181484   3.496508 H        1 UNL1     0.1085
     36 H         5.741343   2.949937   1.933007 H        1 UNL1     0.0691
     37 H         3.479466   -0.284983   0.186754 H        1 UNL1     0.0691
     38 H         7.883279   -1.780108   -1.277366 H        1 UNL1     0.0385
     39 H         8.419959   -1.048021   -2.802018 H        1 UNL1     0.0385
     40 H         6.129767   -2.098989   -2.942847 H        1 UNL1     0.0789
     41 H         5.464967   -1.746103   -5.081336 H        1 UNL1     0.0623
     42 H         5.075871   -0.264307   -7.008786 H        1 UNL1     0.0654
     43 H         5.951773   3.159876   -4.568058 H        1 UNL1     0.0654
     44 H         6.306534   1.725956   -2.638298 H        1 UNL1     0.0623
     45 H         5.899115   1.991351   -7.722711 H        1 UNL1     0.2921
     46 H         7.884666   3.189965   -0.265055 H        1 UNL1     0.2922
     47 H         1.919313   -0.160595   -1.231042 H        1 UNL1     0.2126
     48 H         -1.12126   -1.480168   0.921118 H        1 UNL1     0.2101
     49 H         -0.566511   2.473062   1.608027 H        1 UNL1     0.2100
     50 H         1.521744   -0.426237   4.798272 H        1 UNL1     0.2102
@<TRIPOS>BOND
     1     1     2    1
     2     1     6    1
     3     2     3    1
     4     3     4    1
     5     3    29    1
     6     3    33    1
     7     4     5    1
     8     5     6    1
     9     5     7    1
    10     5    35    1
    11     7     8    1
    12     8     9   ar
    13     8    13   ar
    14     9    10   ar
    15     9    36    1
    16    10    11   ar
    17    10    26    1
    18    11    12   ar
    19    11    14    1
    20    12    13   ar
    21    12    17    1
    22    13    37    1
    23    14    15    1
    24    14    25    2
    25    15    16    1
    26    15    38    1
    27    15    39    1
    28    16    17    1
    29    16    18    1
    30    16    40    1
    31    18    19   ar
    32    18    23   ar
    33    19    20   ar
    34    19    41    1
    35    20    21   ar
    36    20    42    1
    37    21    22   ar
    38    21    24    1
    39    22    23   ar
    40    22    43    1
    41    23    44    1
    42    24    45    1
    43    26    46    1
    44    27    47    1
    45    28    48    1
    46    29    49    1
    47    30    50    1
    48     1    31    1
    49     1    27    1
    50     2    32    1
    51     2    28    1
    52     4    34    1
    53     4    30    1
