@<TRIPOS>MOLECULE
*****
 50 53 0 0 0
SMALL
GASTEIGER

@<TRIPOS>ATOM
     1 C         -0.563541   -1.411297   1.568906 C.3        1 UNL1     0.1889
     2 C         -0.576786   -0.928509   0.093549 C.3        1 UNL1     0.1342
     3 C         -1.978154   -0.709548   -0.49695 C.3        1 UNL1     0.1174
     4 C         -3.008715   -1.709165   0.033924 C.3        1 UNL1     0.1456
     5 C         -2.939623   -1.871971   1.563331 C.3        1 UNL1     0.2326
     6 O         -1.626921   -2.271393   1.950815 O.3        1 UNL1     -0.3076
     7 O         -3.417027   -0.721549   2.284396 O.3        1 UNL1     -0.4605
     8 C         -4.012025   -0.976338   3.506929 C.ar        1 UNL1     0.1310
     9 C         -4.960091   -1.974978   3.754292 C.ar        1 UNL1     0.0226
     10 C         -5.493008   -2.165801   5.034717 C.ar        1 UNL1     0.1343
     11 C         -5.072669   -1.377309   6.104968 C.ar        1 UNL1     0.1007
     12 C         -4.156953   -0.350083   5.861954 C.ar        1 UNL1     0.1389
     13 C         -3.623232   -0.156699   4.573865 C.ar        1 UNL1     0.0229
     14 C         -5.539926   -1.590199   7.494394 C.2        1 UNL1     0.1740
     15 C         -4.820168   -0.802426   8.54934 C.3        1 UNL1     0.0520
     16 C         -4.565991   0.599976   8.013971 C.3        1 UNL1     0.1322
     17 O         -3.756121   0.553531   6.818553 O.3        1 UNL1     -0.4828
     18 C         -5.832132   1.450964   7.889751 C.ar        1 UNL1     -0.0067
     19 C         -6.081169   2.15112   6.691429 C.ar        1 UNL1     -0.0516
     20 C         -7.205033   2.975762   6.561587 C.ar        1 UNL1     -0.0198
     21 C         -8.081502   3.114087   7.622952 C.ar        1 UNL1     0.1169
     22 C         -7.881158   2.41137   8.804007 C.ar        1 UNL1     -0.0198
     23 C         -6.767293   1.572274   8.92761 C.ar        1 UNL1     -0.0516
     24 O         -9.14456   3.955398   7.472944 O.3        1 UNL1     -0.5068
     25 O         -6.40181   -2.410214   7.799705 O.2        1 UNL1     -0.2917
     26 O         -6.414835   -3.15647   5.209056 O.3        1 UNL1     -0.5058
     27 O         -0.3764   -0.362147   2.505415 O.3        1 UNL1     -0.3648
     28 O         0.079354   -1.921029   -0.717062 O.3        1 UNL1     -0.3841
     29 O         -2.390246   0.649092   -0.334439 O.3        1 UNL1     -0.3863
     30 O         -2.780647   -2.996059   -0.580551 O.3        1 UNL1     -0.3829
     31 H         0.327213   -2.038344   1.684878 H        1 UNL1     0.0937
     32 H         0.0   0.0   0.0 H        1 UNL1     0.0671
     33 H         -1.912887   -0.866772   -1.582648 H        1 UNL1     0.0649
     34 H         -4.018156   -1.392381   -0.250817 H        1 UNL1     0.0683
     35 H         -3.604865   -2.719828   1.769411 H        1 UNL1     0.1085
     36 H         -5.286065   -2.656972   2.976638 H        1 UNL1     0.0691
     37 H         -2.912669   0.65073   4.410615 H        1 UNL1     0.0691
     38 H         -3.879038   -1.319631   8.764513 H        1 UNL1     0.0385
     39 H         -5.422486   -0.793523   9.464169 H        1 UNL1     0.0385
     40 H         -3.938205   1.118941   8.750911 H        1 UNL1     0.0789
     41 H         -5.403397   2.066452   5.846972 H        1 UNL1     0.0623
     42 H         -7.379723   3.519747   5.636614 H        1 UNL1     0.0654
     43 H         -8.569345   2.500674   9.636073 H        1 UNL1     0.0654
     44 H         -6.647582   1.030189   9.860701 H        1 UNL1     0.0623
     45 H         -8.806456   4.849219   7.301227 H        1 UNL1     0.2921
     46 H         -6.107572   -3.766707   5.897976 H        1 UNL1     0.2922
     47 H         0.43647   0.123173   2.3065 H        1 UNL1     0.2126
     48 H         0.998175   -1.984544   -0.392306 H        1 UNL1     0.2101
     49 H         -3.113149   0.69973   0.311038 H        1 UNL1     0.2100
     50 H         -2.965022   -2.909544   -1.538796 H        1 UNL1     0.2102
@<TRIPOS>BOND
     1     1     2    1
     2     1     6    1
     3     2     3    1
     4     3     4    1
     5     3    29    1
     6     3    33    1
     7     4     5    1
     8     5     6    1
     9     5     7    1
    10     5    35    1
    11     7     8    1
    12     8     9   ar
    13     8    13   ar
    14     9    10   ar
    15     9    36    1
    16    10    11   ar
    17    10    26    1
    18    11    12   ar
    19    11    14    1
    20    12    13   ar
    21    12    17    1
    22    13    37    1
    23    14    15    1
    24    14    25    2
    25    15    16    1
    26    15    38    1
    27    15    39    1
    28    16    17    1
    29    16    18    1
    30    16    40    1
    31    18    19   ar
    32    18    23   ar
    33    19    20   ar
    34    19    41    1
    35    20    21   ar
    36    20    42    1
    37    21    22   ar
    38    21    24    1
    39    22    23   ar
    40    22    43    1
    41    23    44    1
    42    24    45    1
    43    26    46    1
    44    27    47    1
    45    28    48    1
    46    29    49    1
    47    30    50    1
    48     1    31    1
    49     1    27    1
    50     2    32    1
    51     2    28    1
    52     4    34    1
    53     4    30    1
