@<TRIPOS>MOLECULE
*****
 50 53 0 0 0
SMALL
GASTEIGER

@<TRIPOS>ATOM
     1 C         -0.329752   -1.327344   1.703005 C.3        1 UNL1     0.1889
     2 C         -0.461442   -0.975673   0.19671 C.3        1 UNL1     0.1342
     3 C         -1.902604   -0.96486   -0.335644 C.3        1 UNL1     0.1174
     4 C         -2.787539   -2.024437   0.325646 C.3        1 UNL1     0.1456
     5 C         -2.63499   -2.048476   1.85748 C.3        1 UNL1     0.2326
     6 O         -1.269687   -2.265034   2.206646 O.3        1 UNL1     -0.3076
     7 O         -3.210583   -0.901464   2.508922 O.3        1 UNL1     -0.4605
     8 C         -3.719156   -1.116385   3.777263 C.ar        1 UNL1     0.1310
     9 C         -4.534124   -2.189896   4.152366 C.ar        1 UNL1     0.0226
     10 C         -4.985986   -2.329649   5.470013 C.ar        1 UNL1     0.1343
     11 C         -4.613903   -1.411295   6.450839 C.ar        1 UNL1     0.1007
     12 C         -3.834152   -0.312718   6.079488 C.ar        1 UNL1     0.1389
     13 C         -3.382117   -0.170988   4.753966 C.ar        1 UNL1     0.0229
     14 C         -4.993378   -1.556332   7.87531 C.2        1 UNL1     0.1740
     15 C         -4.324729   -0.606605   8.825298 C.3        1 UNL1     0.0520
     16 C         -4.257337   0.764898   8.167731 C.3        1 UNL1     0.1322
     17 O         -3.499594   0.70781   6.939058 O.3        1 UNL1     -0.4828
     18 C         -5.617393   1.4558   8.042738 C.ar        1 UNL1     -0.0067
     19 C         -5.997973   2.017195   6.80653 C.ar        1 UNL1     -0.0516
     20 C         -7.21405   2.697345   6.670464 C.ar        1 UNL1     -0.0198
     21 C         -8.053086   2.829002   7.762486 C.ar        1 UNL1     0.1169
     22 C         -7.721292   2.258158   8.984324 C.ar        1 UNL1     -0.0198
     23 C         -6.513744   1.562043   9.115893 C.ar        1 UNL1     -0.0516
     24 O         -9.211632   3.530666   7.601737 O.3        1 UNL1     -0.5068
     25 O         -5.740949   -2.438456   8.289411 O.2        1 UNL1     -0.2917
     26 O         -5.77897   -3.398535   5.770417 O.3        1 UNL1     -0.5058
     27 O         -0.224978   -0.18839   2.542406 O.3        1 UNL1     -0.3648
     28 O         0.269521   -1.954019   -0.565682 O.3        1 UNL1     -0.3841
     29 O         -2.461189   0.34831   -0.260141 O.3        1 UNL1     -0.3863
     30 O         -2.439124   -3.325312   -0.195908 O.3        1 UNL1     -0.3829
     31 H         0.631448   -1.839248   1.821858 H        1 UNL1     0.0937
     32 H         0.0   0.0   0.0 H        1 UNL1     0.0671
     33 H         -1.866015   -1.205184   -1.407383 H        1 UNL1     0.0649
     34 H         -3.837976   -1.847245   0.069546 H        1 UNL1     0.0683
     35 H         -3.188712   -2.944612   2.164419 H        1 UNL1     0.1085
     36 H         -4.81229   -2.967465   3.449422 H        1 UNL1     0.0691
     37 H         -2.777163   0.693852   4.490196 H        1 UNL1     0.0691
     38 H         -3.321829   -0.995535   9.031333 H        1 UNL1     0.0385
     39 H         -4.884213   -0.587349   9.766779 H        1 UNL1     0.0385
     40 H         -3.662587   1.411241   8.827302 H        1 UNL1     0.0789
     41 H         -5.352762   1.935402   5.936667 H        1 UNL1     0.0623
     42 H         -7.490819   3.136137   5.71502 H        1 UNL1     0.0654
     43 H         -8.377917   2.342307   9.842038 H        1 UNL1     0.0654
     44 H         -6.291397   1.119725   10.082206 H        1 UNL1     0.0623
     45 H         -8.98677   4.437942   7.33905 H        1 UNL1     0.2921
     46 H         -5.373431   -3.910748   6.487766 H        1 UNL1     0.2922
     47 H         0.517436   0.365724   2.263769 H        1 UNL1     0.2126
     48 H         1.202429   -1.887619   -0.284602 H        1 UNL1     0.2101
     49 H         -2.023178   0.930611   -0.901128 H        1 UNL1     0.2100
     50 H         -2.672934   -3.341295   -1.147113 H        1 UNL1     0.2102
@<TRIPOS>BOND
     1     1     2    1
     2     1     6    1
     3     2     3    1
     4     3     4    1
     5     3    29    1
     6     3    33    1
     7     4     5    1
     8     5     6    1
     9     5     7    1
    10     5    35    1
    11     7     8    1
    12     8     9   ar
    13     8    13   ar
    14     9    10   ar
    15     9    36    1
    16    10    11   ar
    17    10    26    1
    18    11    12   ar
    19    11    14    1
    20    12    13   ar
    21    12    17    1
    22    13    37    1
    23    14    15    1
    24    14    25    2
    25    15    16    1
    26    15    38    1
    27    15    39    1
    28    16    17    1
    29    16    18    1
    30    16    40    1
    31    18    19   ar
    32    18    23   ar
    33    19    20   ar
    34    19    41    1
    35    20    21   ar
    36    20    42    1
    37    21    22   ar
    38    21    24    1
    39    22    23   ar
    40    22    43    1
    41    23    44    1
    42    24    45    1
    43    26    46    1
    44    27    47    1
    45    28    48    1
    46    29    49    1
    47    30    50    1
    48     1    31    1
    49     1    27    1
    50     2    32    1
    51     2    28    1
    52     4    34    1
    53     4    30    1
