@<TRIPOS>MOLECULE
*****
 50 53 0 0 0
SMALL
GASTEIGER

@<TRIPOS>ATOM
     1 C         -0.327266   -1.326628   1.704042 C.3        1 UNL1     0.1889
     2 C         -0.459783   -0.976295   0.197508 C.3        1 UNL1     0.1342
     3 C         -1.901046   -0.968279   -0.334621 C.3        1 UNL1     0.1174
     4 C         -2.784108   -2.028838   0.327597 C.3        1 UNL1     0.1456
     5 C         -2.631274   -2.051487   1.859424 C.3        1 UNL1     0.2326
     6 O         -1.265556   -2.26551   2.20853 O.3        1 UNL1     -0.3076
     7 O         -3.208673   -0.904953   2.510108 O.3        1 UNL1     -0.4605
     8 C         -3.71711   -1.119887   3.778502 C.ar        1 UNL1     0.1310
     9 C         -4.530528   -2.194393   4.154119 C.ar        1 UNL1     0.0226
     10 C         -4.982372   -2.334046   5.471783 C.ar        1 UNL1     0.1343
     11 C         -4.611803   -1.414561   6.452122 C.ar        1 UNL1     0.1007
     12 C         -3.83364   -0.315039   6.080237 C.ar        1 UNL1     0.1389
     13 C         -3.381624   -0.173414   4.754698 C.ar        1 UNL1     0.0229
     14 C         -4.991268   -1.559327   7.876623 C.2        1 UNL1     0.1740
     15 C         -4.324176   -0.608044   8.826149 C.3        1 UNL1     0.0520
     16 C         -4.258736   0.763171   8.167785 C.3        1 UNL1     0.1322
     17 O         -3.500731   0.706493   6.939255 O.3        1 UNL1     -0.4828
     18 C         -5.619806   1.451968   8.042189 C.ar        1 UNL1     -0.0067
     19 C         -5.99987   2.014524   6.806351 C.ar        1 UNL1     -0.0516
     20 C         -7.216928   2.692827   6.669836 C.ar        1 UNL1     -0.0198
     21 C         -8.057473   2.82148   7.761056 C.ar        1 UNL1     0.1169
     22 C         -7.726161   2.249414   8.982453 C.ar        1 UNL1     -0.0198
     23 C         -6.5176   1.555139   9.114436 C.ar        1 UNL1     -0.0516
     24 O         -9.217007   3.521429   7.599958 O.3        1 UNL1     -0.5068
     25 O         -5.737581   -2.442323   8.291136 O.2        1 UNL1     -0.2917
     26 O         -5.773802   -3.403939   5.772701 O.3        1 UNL1     -0.5058
     27 O         -0.224256   -0.186878   2.542581 O.3        1 UNL1     -0.3648
     28 O         0.272687   -1.953986   -0.564276 O.3        1 UNL1     -0.3841
     29 O         -2.461808   0.344013   -0.260002 O.3        1 UNL1     -0.3863
     30 O         -2.433608   -3.329518   -0.193048 O.3        1 UNL1     -0.3829
     31 H         0.634806   -1.836841   1.823119 H        1 UNL1     0.0937
     32 H         0.0   0.0   0.0 H        1 UNL1     0.0671
     33 H         -1.864229   -1.209337   -1.406188 H        1 UNL1     0.0649
     34 H         -3.83488   -1.853589   0.071536 H        1 UNL1     0.0683
     35 H         -3.183452   -2.948317   2.167117 H        1 UNL1     0.1085
     36 H         -4.80743   -2.972791   3.451593 H        1 UNL1     0.0691
     37 H         -2.777925   0.692174   4.490505 H        1 UNL1     0.0691
     38 H         -3.320726   -0.995354   9.032557 H        1 UNL1     0.0385
     39 H         -4.883825   -0.58907   9.767537 H        1 UNL1     0.0385
     40 H         -3.665049   1.41079   8.827061 H        1 UNL1     0.0789
     41 H         -5.353495   1.935084   5.937133 H        1 UNL1     0.0623
     42 H         -7.493307   3.132545   5.714705 H        1 UNL1     0.0654
     43 H         -8.38394   2.331208   9.83951 H        1 UNL1     0.0654
     44 H         -6.29565   1.111787   10.080367 H        1 UNL1     0.0623
     45 H         -8.99318   4.431254   7.345325 H        1 UNL1     0.2921
     46 H         -5.368899   -3.913667   6.492176 H        1 UNL1     0.2922
     47 H         0.515384   0.369759   2.261606 H        1 UNL1     0.2126
     48 H         1.206577   -1.881435   -0.288018 H        1 UNL1     0.2101
     49 H         -2.025049   0.926503   -0.901672 H        1 UNL1     0.2100
     50 H         -2.667544   -3.346596   -1.144203 H        1 UNL1     0.2102
@<TRIPOS>BOND
     1     1     2    1
     2     1     6    1
     3     2     3    1
     4     3     4    1
     5     3    29    1
     6     3    33    1
     7     4     5    1
     8     5     6    1
     9     5     7    1
    10     5    35    1
    11     7     8    1
    12     8     9   ar
    13     8    13   ar
    14     9    10   ar
    15     9    36    1
    16    10    11   ar
    17    10    26    1
    18    11    12   ar
    19    11    14    1
    20    12    13   ar
    21    12    17    1
    22    13    37    1
    23    14    15    1
    24    14    25    2
    25    15    16    1
    26    15    38    1
    27    15    39    1
    28    16    17    1
    29    16    18    1
    30    16    40    1
    31    18    19   ar
    32    18    23   ar
    33    19    20   ar
    34    19    41    1
    35    20    21   ar
    36    20    42    1
    37    21    22   ar
    38    21    24    1
    39    22    23   ar
    40    22    43    1
    41    23    44    1
    42    24    45    1
    43    26    46    1
    44    27    47    1
    45    28    48    1
    46    29    49    1
    47    30    50    1
    48     1    31    1
    49     1    27    1
    50     2    32    1
    51     2    28    1
    52     4    34    1
    53     4    30    1
