@<TRIPOS>MOLECULE
*****
 50 53 0 0 0
SMALL
GASTEIGER

@<TRIPOS>ATOM
     1 C         1.691133   -1.258747   0.571341 C.3        1 UNL1     0.1889
     2 C         0.200981   -0.837289   0.679791 C.3        1 UNL1     0.1342
     3 C         -0.255542   -0.453818   2.095772 C.3        1 UNL1     0.1174
     4 C         0.429614   -1.282691   3.185106 C.3        1 UNL1     0.1456
     5 C         1.950686   -1.392813   2.97398 C.3        1 UNL1     0.2326
     6 O         2.224158   -1.950932   1.690787 O.3        1 UNL1     -0.3076
     7 O         2.653768   -0.160698   3.216653 O.3        1 UNL1     -0.4605
     8 C         2.257709   0.553506   4.333156 C.ar        1 UNL1     0.1310
     9 C         3.118408   1.145606   5.263702 C.ar        1 UNL1     0.0226
     10 C         2.619041   1.865232   6.355798 C.ar        1 UNL1     0.1343
     11 C         1.245772   2.030522   6.530872 C.ar        1 UNL1     0.1007
     12 C         0.375588   1.409306   5.631065 C.ar        1 UNL1     0.1389
     13 C         0.877907   0.683555   4.534529 C.ar        1 UNL1     0.0229
     14 C         0.665687   2.850895   7.619286 C.2        1 UNL1     0.1740
     15 C         -0.810658   3.102542   7.526397 C.3        1 UNL1     0.0520
     16 C         -1.489696   1.820831   7.063707 C.3        1 UNL1     0.1322
     17 O         -0.993072   1.416036   5.768881 O.3        1 UNL1     -0.4828
     18 C         -1.493283   0.710503   8.117216 C.ar        1 UNL1     -0.0067
     19 C         -0.321191   -0.042988   8.333236 C.ar        1 UNL1     -0.0516
     20 C         -0.304155   -1.09638   9.255212 C.ar        1 UNL1     -0.0198
     21 C         -1.452165   -1.410235   9.960476 C.ar        1 UNL1     0.1169
     22 C         -2.612362   -0.665189   9.794084 C.ar        1 UNL1     -0.0198
     23 C         -2.624431   0.400019   8.885656 C.ar        1 UNL1     -0.0516
     24 O         -1.408351   -2.46677   10.821994 O.3        1 UNL1     -0.5068
     25 O         1.337974   3.370185   8.506332 O.2        1 UNL1     -0.2917
     26 O         3.511722   2.417158   7.227627 O.3        1 UNL1     -0.5058
     27 O         2.546413   -0.208494   0.149143 O.3        1 UNL1     -0.3648
     28 O         -0.617593   -1.94086   0.249938 O.3        1 UNL1     -0.3841
     29 O         -0.125094   0.953504   2.306865 O.3        1 UNL1     -0.3863
     30 O         -0.135046   -2.611887   3.194561 O.3        1 UNL1     -0.3829
     31 H         1.749754   -1.995717   -0.237064 H        1 UNL1     0.0937
     32 H         0.0   0.0   0.0 H        1 UNL1     0.0671
     33 H         -1.332296   -0.661208   2.168639 H        1 UNL1     0.0649
     34 H         0.231943   -0.843446   4.169174 H        1 UNL1     0.0683
     35 H         2.268096   -2.133818   3.718319 H        1 UNL1     0.1085
     36 H         4.19626   1.100705   5.152616 H        1 UNL1     0.0691
     37 H         0.17946   0.208506   3.848967 H        1 UNL1     0.0691
     38 H         -0.963783   3.912956   6.805766 H        1 UNL1     0.0385
     39 H         -1.179686   3.437803   8.50169 H        1 UNL1     0.0385
     40 H         -2.547609   2.05964   6.88961 H        1 UNL1     0.0789
     41 H         0.59037   0.177654   7.785493 H        1 UNL1     0.0623
     42 H         0.602499   -1.677587   9.40417 H        1 UNL1     0.0654
     43 H         -3.512678   -0.892808   10.352235 H        1 UNL1     0.0654
     44 H         -3.545055   0.96738   8.788711 H        1 UNL1     0.0623
     45 H         -2.309656   -2.810852   10.931419 H        1 UNL1     0.2921
     46 H         3.817147   3.27039   6.881042 H        1 UNL1     0.2922
     47 H         2.915316   -0.407154   -0.722812 H        1 UNL1     0.2126
     48 H         -1.293195   -2.074323   0.942384 H        1 UNL1     0.2101
     49 H         0.706472   1.142016   2.770282 H        1 UNL1     0.2100
     50 H         -0.807291   -2.658957   2.483517 H        1 UNL1     0.2102
@<TRIPOS>BOND
     1     1     2    1
     2     1     6    1
     3     2     3    1
     4     3     4    1
     5     3    29    1
     6     3    33    1
     7     4     5    1
     8     5     6    1
     9     5     7    1
    10     5    35    1
    11     7     8    1
    12     8     9   ar
    13     8    13   ar
    14     9    10   ar
    15     9    36    1
    16    10    11   ar
    17    10    26    1
    18    11    12   ar
    19    11    14    1
    20    12    13   ar
    21    12    17    1
    22    13    37    1
    23    14    15    1
    24    14    25    2
    25    15    16    1
    26    15    38    1
    27    15    39    1
    28    16    17    1
    29    16    18    1
    30    16    40    1
    31    18    19   ar
    32    18    23   ar
    33    19    20   ar
    34    19    41    1
    35    20    21   ar
    36    20    42    1
    37    21    22   ar
    38    21    24    1
    39    22    23   ar
    40    22    43    1
    41    23    44    1
    42    24    45    1
    43    26    46    1
    44    27    47    1
    45    28    48    1
    46    29    49    1
    47    30    50    1
    48     1    31    1
    49     1    27    1
    50     2    32    1
    51     2    28    1
    52     4    34    1
    53     4    30    1
