@<TRIPOS>MOLECULE
*****
 50 53 0 0 0
SMALL
GASTEIGER

@<TRIPOS>ATOM
     1 C         -0.337723   -1.330942   1.698629 C.3        1 UNL1     0.1889
     2 C         -0.465494   -0.974464   0.193126 C.3        1 UNL1     0.1342
     3 C         -1.905691   -0.956626   -0.341642 C.3        1 UNL1     0.1174
     4 C         -2.79579   -2.014705   0.315101 C.3        1 UNL1     0.1456
     5 C         -2.645954   -2.043709   1.847117 C.3        1 UNL1     0.2326
     6 O         -1.282085   -2.266475   2.197981 O.3        1 UNL1     -0.3076
     7 O         -3.218283   -0.896377   2.500866 O.3        1 UNL1     -0.4605
     8 C         -3.730266   -1.113087   3.76753 C.ar        1 UNL1     0.1310
     9 C         -4.550261   -2.184461   4.137753 C.ar        1 UNL1     0.0226
     10 C         -5.005332   -2.326379   5.454063 C.ar        1 UNL1     0.1343
     11 C         -4.631571   -1.412477   6.438404 C.ar        1 UNL1     0.1007
     12 C         -3.846701   -0.315908   6.071937 C.ar        1 UNL1     0.1389
     13 C         -3.391432   -0.17199   4.747759 C.ar        1 UNL1     0.0229
     14 C         -5.014494   -1.56029   7.861666 C.2        1 UNL1     0.1740
     15 C         -4.343983   -0.616107   8.815858 C.3        1 UNL1     0.0520
     16 C         -4.269798   0.757091   8.162574 C.3        1 UNL1     0.1322
     17 O         -3.509813   0.700682   6.935255 O.3        1 UNL1     -0.4828
     18 C         -5.626836   1.45379   8.036942 C.ar        1 UNL1     -0.0067
     19 C         -6.001495   2.02287   6.802441 C.ar        1 UNL1     -0.0516
     20 C         -7.214562   2.708325   6.66612 C.ar        1 UNL1     -0.0198
     21 C         -8.056433   2.837656   7.756237 C.ar        1 UNL1     0.1169
     22 C         -7.730551   2.259385   8.976172 C.ar        1 UNL1     -0.0198
     23 C         -6.526061   1.558021   9.107888 C.ar        1 UNL1     -0.0516
     24 O         -9.211812   3.544529   7.595517 O.3        1 UNL1     -0.5068
     25 O         -5.766408   -2.440667   8.271601 O.2        1 UNL1     -0.2917
     26 O         -5.803174   -3.392993   5.749647 O.3        1 UNL1     -0.5058
     27 O         -0.230043   -0.194803   2.541469 O.3        1 UNL1     -0.3648
     28 O         0.263037   -1.953407   -0.570824 O.3        1 UNL1     -0.3841
     29 O         -2.459395   0.358444   -0.263324 O.3        1 UNL1     -0.3863
     30 O         -2.451444   -3.315404   -0.209588 O.3        1 UNL1     -0.3829
     31 H         0.621315   -1.84685   1.817647 H        1 UNL1     0.0937
     32 H         0.0   0.0   0.0 H        1 UNL1     0.0671
     33 H         -1.868185   -1.194021   -1.414003 H        1 UNL1     0.0649
     34 H         -3.845104   -1.832774   0.057726 H        1 UNL1     0.0683
     35 H         -3.203612   -2.938599   2.150544 H        1 UNL1     0.1085
     36 H         -4.830105   -2.958793   3.431907 H        1 UNL1     0.0691
     37 H         -2.782506   0.69122   4.487815 H        1 UNL1     0.0691
     38 H         -3.343057   -1.009656   9.022727 H        1 UNL1     0.0385
     39 H         -4.905283   -0.597455   9.756269 H        1 UNL1     0.0385
     40 H         -3.673809   1.399065   8.825286 H        1 UNL1     0.0789
     41 H         -5.353937   1.943018   5.934143 H        1 UNL1     0.0623
     42 H         -7.486736   3.15299   5.712073 H        1 UNL1     0.0654
     43 H         -8.389477   2.341698   9.832297 H        1 UNL1     0.0654
     44 H         -6.308353   1.109982   10.072621 H        1 UNL1     0.0623
     45 H         -8.982677   4.45254   7.339136 H        1 UNL1     0.2921
     46 H         -5.40173   -3.908299   6.467082 H        1 UNL1     0.2922
     47 H         0.514848   0.357357   2.265578 H        1 UNL1     0.2126
     48 H         1.195831   -1.890884   -0.28848 H        1 UNL1     0.2101
     49 H         -2.018249   0.940837   -0.902075 H        1 UNL1     0.2100
     50 H         -2.683686   -3.327773   -1.161231 H        1 UNL1     0.2102
@<TRIPOS>BOND
     1     1     2    1
     2     1     6    1
     3     2     3    1
     4     3     4    1
     5     3    29    1
     6     3    33    1
     7     4     5    1
     8     5     6    1
     9     5     7    1
    10     5    35    1
    11     7     8    1
    12     8     9   ar
    13     8    13   ar
    14     9    10   ar
    15     9    36    1
    16    10    11   ar
    17    10    26    1
    18    11    12   ar
    19    11    14    1
    20    12    13   ar
    21    12    17    1
    22    13    37    1
    23    14    15    1
    24    14    25    2
    25    15    16    1
    26    15    38    1
    27    15    39    1
    28    16    17    1
    29    16    18    1
    30    16    40    1
    31    18    19   ar
    32    18    23   ar
    33    19    20   ar
    34    19    41    1
    35    20    21   ar
    36    20    42    1
    37    21    22   ar
    38    21    24    1
    39    22    23   ar
    40    22    43    1
    41    23    44    1
    42    24    45    1
    43    26    46    1
    44    27    47    1
    45    28    48    1
    46    29    49    1
    47    30    50    1
    48     1    31    1
    49     1    27    1
    50     2    32    1
    51     2    28    1
    52     4    34    1
    53     4    30    1
