@<TRIPOS>MOLECULE
*****
 50 53 0 0 0
SMALL
GASTEIGER

@<TRIPOS>ATOM
     1 C         0.169908   -0.887957   -1.988333 C.3        1 UNL1     0.1889
     2 C         0.532271   -0.830625   -0.479908 C.3        1 UNL1     0.1342
     3 C         2.034551   -0.699703   -0.185831 C.3        1 UNL1     0.1174
     4 C         2.904826   -1.450937   -1.196467 C.3        1 UNL1     0.1456
     5 C         2.47772   -1.189709   -2.652387 C.3        1 UNL1     0.2326
     6 O         1.108004   -1.544434   -2.828219 O.3        1 UNL1     -0.3076
     7 O         2.780617   0.141248   -3.108598 O.3        1 UNL1     -0.4605
     8 C         2.776785   0.327818   -4.479257 C.ar        1 UNL1     0.1310
     9 C         3.030077   1.538512   -5.132988 C.ar        1 UNL1     0.0226
     10 C         3.019922   1.622408   -6.5304 C.ar        1 UNL1     0.1343
     11 C         2.779464   0.491292   -7.309243 C.ar        1 UNL1     0.1007
     12 C         2.484716   -0.714469   -6.667333 C.ar        1 UNL1     0.1389
     13 C         2.49238   -0.797985   -5.262201 C.ar        1 UNL1     0.0229
     14 C         2.83952   0.504968   -8.789229 C.2        1 UNL1     0.1740
     15 C         2.776996   -0.838792   -9.45402 C.3        1 UNL1     0.0520
     16 C         1.753229   -1.692848   -8.718869 C.3        1 UNL1     0.1322
     17 O         2.127453   -1.863473   -7.333982 O.3        1 UNL1     -0.4828
     18 C         0.306398   -1.242218   -8.934129 C.ar        1 UNL1     -0.0067
     19 C         -0.748859   -2.099394   -8.560104 C.ar        1 UNL1     -0.0516
     20 C         -2.082352   -1.73819   -8.786581 C.ar        1 UNL1     -0.0198
     21 C         -2.372802   -0.528478   -9.391613 C.ar        1 UNL1     0.1169
     22 C         -1.356709   0.351572   -9.740764 C.ar        1 UNL1     -0.0198
     23 C         -0.023898   -0.001331   -9.4976 C.ar        1 UNL1     -0.0516
     24 O         -3.681489   -0.227376   -9.630515 O.3        1 UNL1     -0.5068
     25 O         3.010178   1.5264   -9.449561 O.2        1 UNL1     -0.2917
     26 O         3.273611   2.833095   -7.106128 O.3        1 UNL1     -0.5058
     27 O         -0.224424   0.365573   -2.523078 O.3        1 UNL1     -0.3648
     28 O         0.077736   -2.045433   0.144867 O.3        1 UNL1     -0.3841
     29 O         2.406449   0.67317   -0.047832 O.3        1 UNL1     -0.3863
     30 O         2.818343   -2.868571   -0.934693 O.3        1 UNL1     -0.3829
     31 H         -0.72753   -1.51073   -2.071019 H        1 UNL1     0.0937
     32 H         0.0   0.0   0.0 H        1 UNL1     0.0671
     33 H         2.224728   -1.153688   0.796742 H        1 UNL1     0.0649
     34 H         3.955073   -1.165269   -1.070868 H        1 UNL1     0.0683
     35 H         3.070136   -1.906662   -3.234539 H        1 UNL1     0.1085
     36 H         3.278816   2.441013   -4.585502 H        1 UNL1     0.0691
     37 H         2.258607   -1.748125   -4.786724 H        1 UNL1     0.0691
     38 H         3.776293   -1.283387   -9.396851 H        1 UNL1     0.0385
     39 H         2.522147   -0.704897   -10.510856 H        1 UNL1     0.0385
     40 H         1.809186   -2.703718   -9.144932 H        1 UNL1     0.0789
     41 H         -0.54677   -3.058359   -8.09192 H        1 UNL1     0.0623
     42 H         -2.886748   -2.41301   -8.504485 H        1 UNL1     0.0654
     43 H         -1.57363   1.307951   -10.201411 H        1 UNL1     0.0654
     44 H         0.743968   0.714962   -9.773555 H        1 UNL1     0.0623
     45 H         -4.22288   -0.64347   -8.94024 H        1 UNL1     0.2921
     46 H         4.232191   2.977763   -7.146212 H        1 UNL1     0.2922
     47 H         0.52553   0.976595   -2.532065 H        1 UNL1     0.2126
     48 H         -0.668095   -2.374428   -0.392936 H        1 UNL1     0.2101
     49 H         1.723035   1.241037   -0.438045 H        1 UNL1     0.2100
     50 H         2.226858   -3.263994   -1.608116 H        1 UNL1     0.2102
@<TRIPOS>BOND
     1     1     2    1
     2     1     6    1
     3     2     3    1
     4     3     4    1
     5     3    29    1
     6     3    33    1
     7     4     5    1
     8     5     6    1
     9     5     7    1
    10     5    35    1
    11     7     8    1
    12     8     9   ar
    13     8    13   ar
    14     9    10   ar
    15     9    36    1
    16    10    11   ar
    17    10    26    1
    18    11    12   ar
    19    11    14    1
    20    12    13   ar
    21    12    17    1
    22    13    37    1
    23    14    15    1
    24    14    25    2
    25    15    16    1
    26    15    38    1
    27    15    39    1
    28    16    17    1
    29    16    18    1
    30    16    40    1
    31    18    19   ar
    32    18    23   ar
    33    19    20   ar
    34    19    41    1
    35    20    21   ar
    36    20    42    1
    37    21    22   ar
    38    21    24    1
    39    22    23   ar
    40    22    43    1
    41    23    44    1
    42    24    45    1
    43    26    46    1
    44    27    47    1
    45    28    48    1
    46    29    49    1
    47    30    50    1
    48     1    31    1
    49     1    27    1
    50     2    32    1
    51     2    28    1
    52     4    34    1
    53     4    30    1
