@<TRIPOS>MOLECULE
*****
 50 53 0 0 0
SMALL
GASTEIGER

@<TRIPOS>ATOM
     1 C         0.324393   -1.211799   1.788048 C.3        1 UNL1     0.1889
     2 C         0.664152   -0.809358   0.327725 C.3        1 UNL1     0.1342
     3 C         0.591137   -1.959785   -0.687978 C.3        1 UNL1     0.1174
     4 C         1.032034   -3.301534   -0.097694 C.3        1 UNL1     0.1456
     5 C         0.400263   -3.576793   1.279064 C.3        1 UNL1     0.2326
     6 O         0.718225   -2.518544   2.180107 O.3        1 UNL1     -0.3076
     7 O         -1.008936   -3.862352   1.216329 O.3        1 UNL1     -0.4605
     8 C         -1.696102   -3.78983   2.414691 C.ar        1 UNL1     0.1310
     9 C         -2.592852   -4.750754   2.89403 C.ar        1 UNL1     0.0226
     10 C         -3.228076   -4.594256   4.13173 C.ar        1 UNL1     0.1343
     11 C         -2.963531   -3.483438   4.931692 C.ar        1 UNL1     0.1007
     12 C         -2.101267   -2.497099   4.445462 C.ar        1 UNL1     0.1389
     13 C         -1.464707   -2.653409   3.199754 C.ar        1 UNL1     0.0229
     14 C         -3.542147   -3.308787   6.284044 C.2        1 UNL1     0.1740
     15 C         -2.978704   -2.175357   7.089908 C.3        1 UNL1     0.0520
     16 C         -2.771985   -0.983226   6.16576 C.3        1 UNL1     0.1322
     17 O         -1.853388   -1.313263   5.100713 O.3        1 UNL1     -0.4828
     18 C         -4.076107   -0.331613   5.699508 C.ar        1 UNL1     -0.0067
     19 C         -4.029507   0.9058   5.025081 C.ar        1 UNL1     -0.0516
     20 C         -5.206097   1.551769   4.627184 C.ar        1 UNL1     -0.0198
     21 C         -6.433001   0.975525   4.90373 C.ar        1 UNL1     0.1169
     22 C         -6.510206   -0.258308   5.536608 C.ar        1 UNL1     -0.0198
     23 C         -5.333167   -0.913308   5.918195 C.ar        1 UNL1     -0.0516
     24 O         -7.558419   1.652012   4.534676 O.3        1 UNL1     -0.5068
     25 O         -4.370824   -4.074705   6.768965 O.2        1 UNL1     -0.2917
     26 O         -4.092526   -5.567254   4.541101 O.3        1 UNL1     -0.5058
     27 O         -1.019449   -0.93858   2.151679 O.3        1 UNL1     -0.3648
     28 O         2.008741   -0.295689   0.297243 O.3        1 UNL1     -0.3841
     29 O         -0.701627   -2.019819   -1.294023 O.3        1 UNL1     -0.3863
     30 O         2.469478   -3.308377   0.041576 O.3        1 UNL1     -0.3829
     31 H         0.917619   -0.559658   2.438336 H        1 UNL1     0.0937
     32 H         0.0   0.0   -0.0 H        1 UNL1     0.0671
     33 H         1.286792   -1.728858   -1.506792 H        1 UNL1     0.0649
     34 H         0.772597   -4.115318   -0.783879 H        1 UNL1     0.0683
     35 H         0.926665   -4.470143   1.637818 H        1 UNL1     0.1085
     36 H         -2.798063   -5.663264   2.345091 H        1 UNL1     0.0691
     37 H         -0.798673   -1.870582   2.843281 H        1 UNL1     0.0691
     38 H         -2.028594   -2.513145   7.517361 H        1 UNL1     0.0385
     39 H         -3.662532   -1.94643   7.914378 H        1 UNL1     0.0385
     40 H         -2.252092   -0.209533   6.746819 H        1 UNL1     0.0789
     41 H         -3.079222   1.383185   4.804369 H        1 UNL1     0.0623
     42 H         -5.157415   2.511338   4.118392 H        1 UNL1     0.0654
     43 H         -7.465284   -0.725703   5.744643 H        1 UNL1     0.0654
     44 H         -5.43044   -1.88085   6.40115 H        1 UNL1     0.0623
     45 H         -8.177849   1.021046   4.133547 H        1 UNL1     0.2921
     46 H         -5.004454   -5.247889   4.45275 H        1 UNL1     0.2922
     47 H         -1.626918   -1.43777   1.588074 H        1 UNL1     0.2126
     48 H         1.997343   0.483086   -0.29192 H        1 UNL1     0.2101
     49 H         -0.623391   -1.88725   -2.252198 H        1 UNL1     0.2100
     50 H         2.732685   -2.479306   0.492216 H        1 UNL1     0.2102
@<TRIPOS>BOND
     1     1     2    1
     2     1     6    1
     3     2     3    1
     4     3     4    1
     5     3    29    1
     6     3    33    1
     7     4     5    1
     8     5     6    1
     9     5     7    1
    10     5    35    1
    11     7     8    1
    12     8     9   ar
    13     8    13   ar
    14     9    10   ar
    15     9    36    1
    16    10    11   ar
    17    10    26    1
    18    11    12   ar
    19    11    14    1
    20    12    13   ar
    21    12    17    1
    22    13    37    1
    23    14    15    1
    24    14    25    2
    25    15    16    1
    26    15    38    1
    27    15    39    1
    28    16    17    1
    29    16    18    1
    30    16    40    1
    31    18    19   ar
    32    18    23   ar
    33    19    20   ar
    34    19    41    1
    35    20    21   ar
    36    20    42    1
    37    21    22   ar
    38    21    24    1
    39    22    23   ar
    40    22    43    1
    41    23    44    1
    42    24    45    1
    43    26    46    1
    44    27    47    1
    45    28    48    1
    46    29    49    1
    47    30    50    1
    48     1    31    1
    49     1    27    1
    50     2    32    1
    51     2    28    1
    52     4    34    1
    53     4    30    1
