@<TRIPOS>MOLECULE
*****
 50 53 0 0 0
SMALL
GASTEIGER

@<TRIPOS>ATOM
     1 C         -0.357031   -1.339398   1.688001 C.3        1 UNL1     0.1889
     2 C         -0.475723   -0.971174   0.184584 C.3        1 UNL1     0.1342
     3 C         -1.913685   -0.935466   -0.355284 C.3        1 UNL1     0.1174
     4 C         -2.816527   -1.98932   0.29077 C.3        1 UNL1     0.1456
     5 C         -2.672664   -2.030495   1.823079 C.3        1 UNL1     0.2326
     6 O         -1.312351   -2.269083   2.177331 O.3        1 UNL1     -0.3076
     7 O         -3.236154   -0.882196   2.482782 O.3        1 UNL1     -0.4605
     8 C         -3.754502   -1.102616   3.746213 C.ar        1 UNL1     0.1310
     9 C         -4.586014   -2.168543   4.106332 C.ar        1 UNL1     0.0226
     10 C         -5.046903   -2.315064   5.420112 C.ar        1 UNL1     0.1343
     11 C         -4.667721   -1.411557   6.411947 C.ar        1 UNL1     0.1007
     12 C         -3.871102   -0.320124   6.055641 C.ar        1 UNL1     0.1389
     13 C         -3.409969   -0.171552   4.734007 C.ar        1 UNL1     0.0229
     14 C         -5.056885   -1.565399   7.832876 C.2        1 UNL1     0.1740
     15 C         -4.380575   -0.634268   8.795761 C.3        1 UNL1     0.0520
     16 C         -4.290968   0.742586   8.152176 C.3        1 UNL1     0.1322
     17 O         -3.527392   0.687246   6.92704 O.3        1 UNL1     -0.4828
     18 C         -5.640809   1.453175   8.026808 C.ar        1 UNL1     -0.0067
     19 C         -6.006986   2.031834   6.794217 C.ar        1 UNL1     -0.0516
     20 C         -7.212949   2.729818   6.658435 C.ar        1 UNL1     -0.0198
     21 C         -8.056052   2.862168   7.747235 C.ar        1 UNL1     0.1169
     22 C         -7.738706   2.274867   8.965105 C.ar        1 UNL1     -0.0198
     23 C         -6.541465   1.561083   9.096186 C.ar        1 UNL1     -0.0516
     24 O         -9.204063   3.581119   7.587291 O.3        1 UNL1     -0.5068
     25 O         -5.818619   -2.44127   8.234244 O.2        1 UNL1     -0.2917
     26 O         -5.855964   -3.375933   5.7057 O.3        1 UNL1     -0.5058
     27 O         -0.241361   -0.210286   2.539184 O.3        1 UNL1     -0.3648
     28 O         0.246017   -1.951859   -0.583565 O.3        1 UNL1     -0.3841
     29 O         -2.454775   0.384396   -0.269749 O.3        1 UNL1     -0.3863
     30 O         -2.482987   -3.289639   -0.241783 O.3        1 UNL1     -0.3829
     31 H         0.596463   -1.865512   1.806882 H        1 UNL1     0.0937
     32 H         0.0   0.0   0.0 H        1 UNL1     0.0671
     33 H         -1.874529   -1.16572   -1.429141 H        1 UNL1     0.0649
     34 H         -3.863048   -1.795305   0.030861 H        1 UNL1     0.0683
     35 H         -3.240176   -2.921967   2.118184 H        1 UNL1     0.1085
     36 H         -4.870889   -2.935298   3.394255 H        1 UNL1     0.0691
     37 H         -2.79189   0.687506   4.482032 H        1 UNL1     0.0691
     38 H         -3.384189   -1.038851   9.003259 H        1 UNL1     0.0385
     39 H         -4.944864   -0.616636   9.734401 H        1 UNL1     0.0385
     40 H         -3.691091   1.37424   8.821265 H        1 UNL1     0.0789
     41 H         -5.358218   1.949801   5.927025 H        1 UNL1     0.0623
     42 H         -7.47852   3.181715   5.705926 H        1 UNL1     0.0654
     43 H         -8.398789   2.359532   9.82011 H        1 UNL1     0.0654
     44 H         -6.330415   1.106295   10.059239 H        1 UNL1     0.0623
     45 H         -8.965434   4.488058   7.335823 H        1 UNL1     0.2921
     46 H         -5.46185   -3.900075   6.420795 H        1 UNL1     0.2922
     47 H         0.509918   0.336451   2.269891 H        1 UNL1     0.2126
     48 H         1.178325   -1.900468   -0.297397 H        1 UNL1     0.2101
     49 H         -2.005465   0.96692   -0.902663 H        1 UNL1     0.2100
     50 H         -2.71181   -3.293079   -1.194328 H        1 UNL1     0.2102
@<TRIPOS>BOND
     1     1     2    1
     2     1     6    1
     3     2     3    1
     4     3     4    1
     5     3    29    1
     6     3    33    1
     7     4     5    1
     8     5     6    1
     9     5     7    1
    10     5    35    1
    11     7     8    1
    12     8     9   ar
    13     8    13   ar
    14     9    10   ar
    15     9    36    1
    16    10    11   ar
    17    10    26    1
    18    11    12   ar
    19    11    14    1
    20    12    13   ar
    21    12    17    1
    22    13    37    1
    23    14    15    1
    24    14    25    2
    25    15    16    1
    26    15    38    1
    27    15    39    1
    28    16    17    1
    29    16    18    1
    30    16    40    1
    31    18    19   ar
    32    18    23   ar
    33    19    20   ar
    34    19    41    1
    35    20    21   ar
    36    20    42    1
    37    21    22   ar
    38    21    24    1
    39    22    23   ar
    40    22    43    1
    41    23    44    1
    42    24    45    1
    43    26    46    1
    44    27    47    1
    45    28    48    1
    46    29    49    1
    47    30    50    1
    48     1    31    1
    49     1    27    1
    50     2    32    1
    51     2    28    1
    52     4    34    1
    53     4    30    1
