@<TRIPOS>MOLECULE
*****
 50 53 0 0 0
SMALL
GASTEIGER

@<TRIPOS>ATOM
     1 C         -0.118771   0.895938   1.988465 C.3        1 UNL1     0.1889
     2 C         0.375113   -0.203947   1.010573 C.3        1 UNL1     0.1342
     3 C         -0.01127   -1.636618   1.408853 C.3        1 UNL1     0.1174
     4 C         -0.019378   -1.849493   2.924682 C.3        1 UNL1     0.1456
     5 C         -0.74979   -0.721009   3.675272 C.3        1 UNL1     0.2326
     6 O         -0.154522   0.536033   3.361631 O.3        1 UNL1     -0.3076
     7 O         -2.176179   -0.735057   3.484122 O.3        1 UNL1     -0.4605
     8 C         -2.935058   -0.285276   4.549639 C.ar        1 UNL1     0.1310
     9 C         -2.747763   -0.64745   5.887941 C.ar        1 UNL1     0.0226
     10 C         -3.560316   -0.122989   6.900167 C.ar        1 UNL1     0.1343
     11 C         -4.565575   0.795634   6.601126 C.ar        1 UNL1     0.1007
     12 C         -4.788827   1.133538   5.263679 C.ar        1 UNL1     0.1389
     13 C         -3.973388   0.604029   4.245784 C.ar        1 UNL1     0.0229
     14 C         -5.398259   1.444843   7.640029 C.2        1 UNL1     0.1740
     15 C         -6.27319   2.566827   7.163379 C.3        1 UNL1     0.0520
     16 C         -6.864064   2.177681   5.815272 C.3        1 UNL1     0.1322
     17 O         -5.818999   1.943646   4.845665 O.3        1 UNL1     -0.4828
     18 C         -7.911749   1.065054   5.899774 C.ar        1 UNL1     -0.0067
     19 C         -8.494509   0.571091   4.714613 C.ar        1 UNL1     -0.0516
     20 C         -9.489654   -0.4126   4.759318 C.ar        1 UNL1     -0.0198
     21 C         -9.914974   -0.904055   5.980548 C.ar        1 UNL1     0.1169
     22 C         -9.336566   -0.461573   7.163127 C.ar        1 UNL1     -0.0198
     23 C         -8.3284   0.508786   7.117707 C.ar        1 UNL1     -0.0516
     24 O         -10.912744   -1.834011   5.986686 O.3        1 UNL1     -0.5068
     25 O         -5.3367   1.157924   8.832662 O.2        1 UNL1     -0.2917
     26 O         -3.326283   -0.517615   8.185112 O.3        1 UNL1     -0.5058
     27 O         -1.326834   1.516345   1.578018 O.3        1 UNL1     -0.3648
     28 O         1.812496   -0.148902   0.950532 O.3        1 UNL1     -0.3841
     29 O         -1.240328   -2.021106   0.789405 O.3        1 UNL1     -0.3863
     30 O         1.342375   -1.917905   3.400747 O.3        1 UNL1     -0.3829
     31 H         0.623144   1.701206   1.954051 H        1 UNL1     0.0937
     32 H         0.0   0.0   0.0 H        1 UNL1     0.0671
     33 H         0.748149   -2.315643   0.996632 H        1 UNL1     0.0649
     34 H         -0.491565   -2.808462   3.165141 H        1 UNL1     0.0683
     35 H         -0.532398   -0.922121   4.731763 H        1 UNL1     0.1085
     36 H         -1.947853   -1.313747   6.191769 H        1 UNL1     0.0691
     37 H         -4.168494   0.882074   3.212286 H        1 UNL1     0.0691
     38 H         -5.64704   3.461235   7.076798 H        1 UNL1     0.0385
     39 H         -7.046898   2.762264   7.913684 H        1 UNL1     0.0385
     40 H         -7.402368   3.055233   5.432322 H        1 UNL1     0.0789
     41 H         -8.184472   0.947202   3.74401 H        1 UNL1     0.0623
     42 H         -9.93971   -0.776828   3.839101 H        1 UNL1     0.0654
     43 H         -9.651531   -0.850557   8.124063 H        1 UNL1     0.0654
     44 H         -7.891294   0.823797   8.060337 H        1 UNL1     0.0623
     45 H         -11.710466   -1.430442   5.607886 H        1 UNL1     0.2921
     46 H         -3.184684   0.263645   8.74278 H        1 UNL1     0.2922
     47 H         -1.236526   1.863433   0.679556 H        1 UNL1     0.2126
     48 H         2.042379   0.699717   0.525407 H        1 UNL1     0.2101
     49 H         -1.107859   -2.132719   -0.165471 H        1 UNL1     0.2100
     50 H         1.745148   -2.737248   3.045551 H        1 UNL1     0.2102
@<TRIPOS>BOND
     1     1     2    1
     2     1     6    1
     3     2     3    1
     4     3     4    1
     5     3    29    1
     6     3    33    1
     7     4     5    1
     8     5     6    1
     9     5     7    1
    10     5    35    1
    11     7     8    1
    12     8     9   ar
    13     8    13   ar
    14     9    10   ar
    15     9    36    1
    16    10    11   ar
    17    10    26    1
    18    11    12   ar
    19    11    14    1
    20    12    13   ar
    21    12    17    1
    22    13    37    1
    23    14    15    1
    24    14    25    2
    25    15    16    1
    26    15    38    1
    27    15    39    1
    28    16    17    1
    29    16    18    1
    30    16    40    1
    31    18    19   ar
    32    18    23   ar
    33    19    20   ar
    34    19    41    1
    35    20    21   ar
    36    20    42    1
    37    21    22   ar
    38    21    24    1
    39    22    23   ar
    40    22    43    1
    41    23    44    1
    42    24    45    1
    43    26    46    1
    44    27    47    1
    45    28    48    1
    46    29    49    1
    47    30    50    1
    48     1    31    1
    49     1    27    1
    50     2    32    1
    51     2    28    1
    52     4    34    1
    53     4    30    1
