@<TRIPOS>MOLECULE
*****
 50 53 0 0 0
SMALL
GASTEIGER

@<TRIPOS>ATOM
     1 C         -0.533351   -1.258218   1.703886 C.3        1 UNL1     0.1889
     2 C         -0.524877   -0.945766   0.18328 C.3        1 UNL1     0.1342
     3 C         -1.915909   -0.880826   -0.465781 C.3        1 UNL1     0.1174
     4 C         -2.90414   -1.875876   0.147727 C.3        1 UNL1     0.1456
     5 C         -2.877238   -1.861482   1.687023 C.3        1 UNL1     0.2326
     6 O         -1.557394   -2.133622   2.152663 O.3        1 UNL1     -0.3076
     7 O         -3.444443   -0.668874   2.259112 O.3        1 UNL1     -0.4605
     8 C         -4.074389   -0.823035   3.480967 C.ar        1 UNL1     0.1310
     9 C         -4.974413   -1.843762   3.805578 C.ar        1 UNL1     0.0226
     10 C         -5.548414   -1.924345   5.079915 C.ar        1 UNL1     0.1343
     11 C         -5.217671   -0.998972   6.068921 C.ar        1 UNL1     0.1007
     12 C         -4.351701   0.048642   5.744288 C.ar        1 UNL1     0.1389
     13 C         -3.776724   0.130973   4.462082 C.ar        1 UNL1     0.0229
     14 C         -5.729453   -1.085494   7.456273 C.2        1 UNL1     0.1740
     15 C         -5.099346   -0.144453   8.440629 C.3        1 UNL1     0.0520
     16 C         -4.902219   1.203294   7.760425 C.3        1 UNL1     0.1322
     17 O         -4.042161   1.074547   6.606825 O.3        1 UNL1     -0.4828
     18 C         -6.207839   1.957503   7.497273 C.ar        1 UNL1     -0.0067
     19 C         -6.485941   3.134476   8.222262 C.ar        1 UNL1     -0.0516
     20 C         -7.691655   3.82228   8.040211 C.ar        1 UNL1     -0.0198
     21 C         -8.628454   3.340372   7.143551 C.ar        1 UNL1     0.1169
     22 C         -8.369288   2.202544   6.390545 C.ar        1 UNL1     -0.0198
     23 C         -7.155858   1.524838   6.558946 C.ar        1 UNL1     -0.0516
     24 O         -9.807074   4.015753   7.020607 O.3        1 UNL1     -0.5068
     25 O         -6.555923   -1.917433   7.821391 O.2        1 UNL1     -0.2917
     26 O         -6.419683   -2.943616   5.332031 O.3        1 UNL1     -0.5058
     27 O         -0.438889   -0.101112   2.519342 O.3        1 UNL1     -0.3648
     28 O         0.214534   -1.980854   -0.490939 O.3        1 UNL1     -0.3841
     29 O         -2.41121   0.459617   -0.470388 O.3        1 UNL1     -0.3863
     30 O         -2.581396   -3.207168   -0.309645 O.3        1 UNL1     -0.3829
     31 H         0.387807   -1.812464   1.914499 H        1 UNL1     0.0937
     32 H         0.0   0.0   0.0 H        1 UNL1     0.0671
     33 H         -1.805153   -1.154589   -1.524321 H        1 UNL1     0.0649
     34 H         -3.920076   -1.655564   -0.198305 H        1 UNL1     0.0683
     35 H         -3.498829   -2.720057   1.970487 H        1 UNL1     0.1085
     36 H         -5.229121   -2.625594   3.098484 H        1 UNL1     0.0691
     37 H         -3.106391   0.956926   4.234162 H        1 UNL1     0.0691
     38 H         -4.140429   -0.577117   8.74527 H        1 UNL1     0.0385
     39 H         -5.738621   -0.071303   9.327057 H        1 UNL1     0.0385
     40 H         -4.335606   1.837114   8.455941 H        1 UNL1     0.0789
     41 H         -5.770822   3.528132   8.938704 H        1 UNL1     0.0623
     42 H         -7.899454   4.72212   8.6139 H        1 UNL1     0.0654
     43 H         -9.089566   1.824904   5.674655 H        1 UNL1     0.0654
     44 H         -6.982263   0.645339   5.946417 H        1 UNL1     0.0623
     45 H         -9.759283   4.574211   6.22779 H        1 UNL1     0.2921
     46 H         -6.283896   -3.269174   6.235903 H        1 UNL1     0.2922
     47 H         0.340625   0.417429   2.275759 H        1 UNL1     0.2126
     48 H         1.156049   -1.838569   -0.274059 H        1 UNL1     0.2101
     49 H         -3.017067   0.590138   0.276402 H        1 UNL1     0.2100
     50 H         -2.765023   -3.248467   -1.271044 H        1 UNL1     0.2102
@<TRIPOS>BOND
     1     1     2    1
     2     1     6    1
     3     2     3    1
     4     3     4    1
     5     3    29    1
     6     3    33    1
     7     4     5    1
     8     5     6    1
     9     5     7    1
    10     5    35    1
    11     7     8    1
    12     8     9   ar
    13     8    13   ar
    14     9    10   ar
    15     9    36    1
    16    10    11   ar
    17    10    26    1
    18    11    12   ar
    19    11    14    1
    20    12    13   ar
    21    12    17    1
    22    13    37    1
    23    14    15    1
    24    14    25    2
    25    15    16    1
    26    15    38    1
    27    15    39    1
    28    16    17    1
    29    16    18    1
    30    16    40    1
    31    18    19   ar
    32    18    23   ar
    33    19    20   ar
    34    19    41    1
    35    20    21   ar
    36    20    42    1
    37    21    22   ar
    38    21    24    1
    39    22    23   ar
    40    22    43    1
    41    23    44    1
    42    24    45    1
    43    26    46    1
    44    27    47    1
    45    28    48    1
    46    29    49    1
    47    30    50    1
    48     1    31    1
    49     1    27    1
    50     2    32    1
    51     2    28    1
    52     4    34    1
    53     4    30    1
