@<TRIPOS>MOLECULE
*****
 50 53 0 0 0
SMALL
GASTEIGER

@<TRIPOS>ATOM
     1 C         0.082666   -0.394678   2.146672 C.3        1 UNL1     0.1889
     2 C         -0.699162   -0.089779   0.840639 C.3        1 UNL1     0.1342
     3 C         -1.577771   1.169261   0.898319 C.3        1 UNL1     0.1174
     4 C         -2.194637   1.399714   2.280161 C.3        1 UNL1     0.1456
     5 C         -1.169869   1.24019   3.418039 C.3        1 UNL1     0.2326
     6 O         -0.574802   -0.054104   3.35834 O.3        1 UNL1     -0.3076
     7 O         -0.203508   2.305312   3.472649 O.3        1 UNL1     -0.4605
     8 C         0.814887   2.248376   2.53822 C.ar        1 UNL1     0.1310
     9 C         1.110282   3.243192   1.599932 C.ar        1 UNL1     0.0226
     10 C         2.176386   3.099434   0.70402 C.ar        1 UNL1     0.1343
     11 C         2.988502   1.96675   0.740544 C.ar        1 UNL1     0.1007
     12 C         2.678295   0.94824   1.645637 C.ar        1 UNL1     0.1389
     13 C         1.604662   1.091857   2.544591 C.ar        1 UNL1     0.0229
     14 C         4.178361   1.800675   -0.125948 C.2        1 UNL1     0.1740
     15 C         5.06065   0.631475   0.199762 C.3        1 UNL1     0.0520
     16 C         4.17586   -0.556243   0.55251 C.3        1 UNL1     0.1322
     17 O         3.343868   -0.254633   1.69439 O.3        1 UNL1     -0.4828
     18 C         3.422277   -1.140317   -0.644859 C.ar        1 UNL1     -0.0067
     19 C         4.1283   -1.441048   -1.827782 C.ar        1 UNL1     -0.0516
     20 C         3.461919   -1.931751   -2.956989 C.ar        1 UNL1     -0.0198
     21 C         2.091738   -2.11869   -2.918463 C.ar        1 UNL1     0.1169
     22 C         1.373775   -1.863313   -1.757364 C.ar        1 UNL1     -0.0198
     23 C         2.042606   -1.390086   -0.622121 C.ar        1 UNL1     -0.0516
     24 O         1.471695   -2.562157   -4.049518 O.3        1 UNL1     -0.5068
     25 O         4.48943   2.597483   -1.00732 O.2        1 UNL1     -0.2917
     26 O         2.410804   4.105768   -0.187004 O.3        1 UNL1     -0.5058
     27 O         1.421174   0.075216   2.127096 O.3        1 UNL1     -0.3648
     28 O         -1.5655   -1.20409   0.556958 O.3        1 UNL1     -0.3841
     29 O         -0.86376   2.308455   0.414007 O.3        1 UNL1     -0.3863
     30 O         -3.266096   0.453185   2.484481 O.3        1 UNL1     -0.3829
     31 H         0.180207   -1.484207   2.205761 H        1 UNL1     0.0937
     32 H         0.0   0.0   0.0 H        1 UNL1     0.0671
     33 H         -2.412258   1.028252   0.197271 H        1 UNL1     0.0649
     34 H         -2.637361   2.400676   2.32987 H        1 UNL1     0.0683
     35 H         -1.780035   1.268975   4.329493 H        1 UNL1     0.1085
     36 H         0.551375   4.171629   1.55813 H        1 UNL1     0.0691
     37 H         1.383202   0.283944   3.238655 H        1 UNL1     0.0691
     38 H         5.692111   0.91902   1.047171 H        1 UNL1     0.0385
     39 H         5.711256   0.423258   -0.656471 H        1 UNL1     0.0385
     40 H         4.837732   -1.361043   0.89999 H        1 UNL1     0.0789
     41 H         5.202869   -1.294347   -1.886371 H        1 UNL1     0.0623
     42 H         4.015759   -2.148635   -3.867063 H        1 UNL1     0.0654
     43 H         0.302742   -2.020459   -1.711498 H        1 UNL1     0.0654
     44 H         1.451826   -1.211192   0.271088 H        1 UNL1     0.0623
     45 H         2.147883   -2.719938   -4.728187 H        1 UNL1     0.2921
     46 H         1.754717   4.80929   -0.060439 H        1 UNL1     0.2922
     47 H         1.971428   -0.504038   1.58162 H        1 UNL1     0.2126
     48 H         -2.479898   -0.889002   0.69234 H        1 UNL1     0.2101
     49 H         -1.396776   3.109718   0.539167 H        1 UNL1     0.2100
     50 H         -3.44616   0.012195   1.628433 H        1 UNL1     0.2102
@<TRIPOS>BOND
     1     1     2    1
     2     1     6    1
     3     2     3    1
     4     3     4    1
     5     3    29    1
     6     3    33    1
     7     4     5    1
     8     5     6    1
     9     5     7    1
    10     5    35    1
    11     7     8    1
    12     8     9   ar
    13     8    13   ar
    14     9    10   ar
    15     9    36    1
    16    10    11   ar
    17    10    26    1
    18    11    12   ar
    19    11    14    1
    20    12    13   ar
    21    12    17    1
    22    13    37    1
    23    14    15    1
    24    14    25    2
    25    15    16    1
    26    15    38    1
    27    15    39    1
    28    16    17    1
    29    16    18    1
    30    16    40    1
    31    18    19   ar
    32    18    23   ar
    33    19    20   ar
    34    19    41    1
    35    20    21   ar
    36    20    42    1
    37    21    22   ar
    38    21    24    1
    39    22    23   ar
    40    22    43    1
    41    23    44    1
    42    24    45    1
    43    26    46    1
    44    27    47    1
    45    28    48    1
    46    29    49    1
    47    30    50    1
    48     1    31    1
    49     1    27    1
    50     2    32    1
    51     2    28    1
    52     4    34    1
    53     4    30    1
