@<TRIPOS>MOLECULE
*****
 50 53 0 0 0
SMALL
GASTEIGER

@<TRIPOS>ATOM
     1 C         2.072648   0.67305   0.148115 C.3        1 UNL1     0.1889
     2 C         0.894362   -0.236025   0.58989 C.3        1 UNL1     0.1342
     3 C         0.545586   -0.15299   2.083853 C.3        1 UNL1     0.1174
     4 C         1.775692   0.060446   2.969516 C.3        1 UNL1     0.1456
     5 C         2.705665   1.163505   2.432138 C.3        1 UNL1     0.2326
     6 O         3.110229   0.852285   1.100846 O.3        1 UNL1     -0.3076
     7 O         2.158463   2.488262   2.562178 O.3        1 UNL1     -0.4605
     8 C         2.775326   3.475055   1.814349 C.ar        1 UNL1     0.1310
     9 C         3.168865   4.728827   2.294436 C.ar        1 UNL1     0.0226
     10 C         3.80408   5.656461   1.46023 C.ar        1 UNL1     0.1343
     11 C         4.082833   5.343396   0.130521 C.ar        1 UNL1     0.1007
     12 C         3.657919   4.110324   -0.371242 C.ar        1 UNL1     0.1389
     13 C         3.016869   3.178795   0.467053 C.ar        1 UNL1     0.0229
     14 C         4.826019   6.252792   -0.772158 C.2        1 UNL1     0.1740
     15 C         5.231066   5.667949   -2.093311 C.3        1 UNL1     0.0520
     16 C         4.084228   4.812177   -2.613286 C.3        1 UNL1     0.1322
     17 O         3.783763   3.741923   -1.690602 O.3        1 UNL1     -0.4828
     18 C         2.866097   5.622103   -3.06373 C.ar        1 UNL1     -0.0067
     19 C         3.029547   6.644123   -4.021318 C.ar        1 UNL1     -0.0516
     20 C         1.945318   7.43496   -4.420049 C.ar        1 UNL1     -0.0198
     21 C         0.696907   7.219064   -3.864452 C.ar        1 UNL1     0.1169
     22 C         0.497478   6.198353   -2.944008 C.ar        1 UNL1     -0.0198
     23 C         1.577678   5.395331   -2.558808 C.ar        1 UNL1     -0.0516
     24 O         -0.327188   8.033725   -4.249104 O.3        1 UNL1     -0.5068
     25 O         5.171168   7.387765   -0.454051 O.2        1 UNL1     -0.2917
     26 O         4.161494   6.862007   1.989853 O.3        1 UNL1     -0.5058
     27 O         1.654921   1.908678   -0.41002 O.3        1 UNL1     -0.3648
     28 O         1.242629   -1.603947   0.306683 O.3        1 UNL1     -0.3841
     29 O         -0.476514   0.819172   2.312647 O.3        1 UNL1     -0.3863
     30 O         2.519914   -1.174456   3.052228 O.3        1 UNL1     -0.3829
     31 H         2.571628   0.158045   -0.680057 H        1 UNL1     0.0937
     32 H         -0.0   0.0   0.0 H        1 UNL1     0.0671
     33 H         0.104423   -1.115207   2.379205 H        1 UNL1     0.0649
     34 H         1.463348   0.315311   3.988283 H        1 UNL1     0.0683
     35 H         3.599756   1.086469   3.063443 H        1 UNL1     0.1085
     36 H         3.030909   5.010932   3.332465 H        1 UNL1     0.0691
     37 H         2.694901   2.226214   0.05182 H        1 UNL1     0.0691
     38 H         6.129982   5.064813   -1.926864 H        1 UNL1     0.0385
     39 H         5.486897   6.480263   -2.782132 H        1 UNL1     0.0385
     40 H         4.444632   4.302437   -3.517052 H        1 UNL1     0.0789
     41 H         4.001226   6.839489   -4.465527 H        1 UNL1     0.0623
     42 H         2.086611   8.227752   -5.150479 H        1 UNL1     0.0654
     43 H         -0.479108   6.010837   -2.513861 H        1 UNL1     0.0654
     44 H         1.383497   4.600228   -1.845401 H        1 UNL1     0.0623
     45 H         -1.11312   7.485446   -4.40537 H        1 UNL1     0.2921
     46 H         4.172396   6.799573   2.958044 H        1 UNL1     0.2922
     47 H         1.153493   2.418051   0.241877 H        1 UNL1     0.2126
     48 H         0.440684   -2.027481   -0.05558 H        1 UNL1     0.2101
     49 H         -1.257391   0.392217   2.699603 H        1 UNL1     0.2100
     50 H         3.167886   -1.087689   3.781828 H        1 UNL1     0.2102
@<TRIPOS>BOND
     1     1     2    1
     2     1     6    1
     3     2     3    1
     4     3     4    1
     5     3    29    1
     6     3    33    1
     7     4     5    1
     8     5     6    1
     9     5     7    1
    10     5    35    1
    11     7     8    1
    12     8     9   ar
    13     8    13   ar
    14     9    10   ar
    15     9    36    1
    16    10    11   ar
    17    10    26    1
    18    11    12   ar
    19    11    14    1
    20    12    13   ar
    21    12    17    1
    22    13    37    1
    23    14    15    1
    24    14    25    2
    25    15    16    1
    26    15    38    1
    27    15    39    1
    28    16    17    1
    29    16    18    1
    30    16    40    1
    31    18    19   ar
    32    18    23   ar
    33    19    20   ar
    34    19    41    1
    35    20    21   ar
    36    20    42    1
    37    21    22   ar
    38    21    24    1
    39    22    23   ar
    40    22    43    1
    41    23    44    1
    42    24    45    1
    43    26    46    1
    44    27    47    1
    45    28    48    1
    46    29    49    1
    47    30    50    1
    48     1    31    1
    49     1    27    1
    50     2    32    1
    51     2    28    1
    52     4    34    1
    53     4    30    1
