@<TRIPOS>MOLECULE
*****
 50 53 0 0 0
SMALL
GASTEIGER

@<TRIPOS>ATOM
     1 C         -0.334121   -1.331663   1.698776 C.3        1 UNL1     0.1889
     2 C         -0.459574   -0.977381   0.19256 C.3        1 UNL1     0.1342
     3 C         -1.898184   -0.969643   -0.346705 C.3        1 UNL1     0.1174
     4 C         -2.783238   -2.033064   0.308224 C.3        1 UNL1     0.1456
     5 C         -2.637991   -2.059708   1.840724 C.3        1 UNL1     0.2326
     6 O         -1.273766   -2.273044   2.196034 O.3        1 UNL1     -0.3076
     7 O         -3.220008   -0.915647   2.491648 O.3        1 UNL1     -0.4605
     8 C         -3.734056   -1.134544   3.757099 C.ar        1 UNL1     0.1310
     9 C         -4.547728   -2.21113   4.126155 C.ar        1 UNL1     0.0226
     10 C         -5.005518   -2.354794   5.441332 C.ar        1 UNL1     0.1343
     11 C         -4.640801   -1.437327   6.425748 C.ar        1 UNL1     0.1007
     12 C         -3.862437   -0.335783   6.060323 C.ar        1 UNL1     0.1389
     13 C         -3.40444   -0.190126   4.737276 C.ar        1 UNL1     0.0229
     14 C         -5.026705   -1.58628   7.848086 C.2        1 UNL1     0.1740
     15 C         -4.365369   -0.636529   8.803154 C.3        1 UNL1     0.0520
     16 C         -4.29876   0.736465   8.148625 C.3        1 UNL1     0.1322
     17 O         -3.534955   0.683991   6.923506 O.3        1 UNL1     -0.4828
     18 C         -5.660182   1.423711   8.018446 C.ar        1 UNL1     -0.0067
     19 C         -6.036424   1.986466   6.78153 C.ar        1 UNL1     -0.0516
     20 C         -7.253785   2.663396   6.64095 C.ar        1 UNL1     -0.0198
     21 C         -8.098439   2.790478   7.729176 C.ar        1 UNL1     0.1169
     22 C         -7.770885   2.218162   8.95147 C.ar        1 UNL1     -0.0198
     23 C         -6.561987   1.525253   9.087479 C.ar        1 UNL1     -0.0516
     24 O         -9.258212   3.489134   7.564233 O.3        1 UNL1     -0.5068
     25 O         -5.773719   -2.471365   8.256841 O.2        1 UNL1     -0.2917
     26 O         -5.79686   -3.426545   5.735805 O.3        1 UNL1     -0.5058
     27 O         -0.236662   -0.194083   2.540916 O.3        1 UNL1     -0.3648
     28 O         0.277859   -1.952111   -0.56823 O.3        1 UNL1     -0.3841
     29 O         -2.460901   0.341767   -0.271304 O.3        1 UNL1     -0.3863
     30 O         -2.428577   -3.331897   -0.214211 O.3        1 UNL1     -0.3829
     31 H         0.627966   -1.841044   1.821247 H        1 UNL1     0.0937
     32 H         0.0   0.0   0.0 H        1 UNL1     0.0671
     33 H         -1.855748   -1.207732   -1.418728 H        1 UNL1     0.0649
     34 H         -3.832936   -1.858377   0.047418 H        1 UNL1     0.0683
     35 H         -3.190602   -2.958036   2.143226 H        1 UNL1     0.1085
     36 H         -4.82027   -2.988096   3.420347 H        1 UNL1     0.0691
     37 H         -2.800715   0.676968   4.478128 H        1 UNL1     0.0691
     38 H         -3.362357   -1.02299   9.013249 H        1 UNL1     0.0385
     39 H         -4.929429   -0.620747   9.741965 H        1 UNL1     0.0385
     40 H         -3.709053   1.3832   8.812327 H        1 UNL1     0.0789
     41 H         -5.386803   1.908252   5.914624 H        1 UNL1     0.0623
     42 H         -7.527215   3.103289   5.685051 H        1 UNL1     0.0654
     43 H         -8.431868   2.298724   9.806175 H        1 UNL1     0.0654
     44 H         -6.343018   1.081656   10.053978 H        1 UNL1     0.0623
     45 H         -9.034673   4.397856   7.305443 H        1 UNL1     0.2921
     46 H         -5.393914   -3.93834   6.45491 H        1 UNL1     0.2922
     47 H         0.505381   0.362798   2.266845 H        1 UNL1     0.2126
     48 H         1.20933   -1.883105   -0.28304 H        1 UNL1     0.2101
     49 H         -2.021547   0.926572   -0.909085 H        1 UNL1     0.2100
     50 H         -2.657762   -3.346661   -1.16656 H        1 UNL1     0.2102
@<TRIPOS>BOND
     1     1     2    1
     2     1     6    1
     3     2     3    1
     4     3     4    1
     5     3    29    1
     6     3    33    1
     7     4     5    1
     8     5     6    1
     9     5     7    1
    10     5    35    1
    11     7     8    1
    12     8     9   ar
    13     8    13   ar
    14     9    10   ar
    15     9    36    1
    16    10    11   ar
    17    10    26    1
    18    11    12   ar
    19    11    14    1
    20    12    13   ar
    21    12    17    1
    22    13    37    1
    23    14    15    1
    24    14    25    2
    25    15    16    1
    26    15    38    1
    27    15    39    1
    28    16    17    1
    29    16    18    1
    30    16    40    1
    31    18    19   ar
    32    18    23   ar
    33    19    20   ar
    34    19    41    1
    35    20    21   ar
    36    20    42    1
    37    21    22   ar
    38    21    24    1
    39    22    23   ar
    40    22    43    1
    41    23    44    1
    42    24    45    1
    43    26    46    1
    44    27    47    1
    45    28    48    1
    46    29    49    1
    47    30    50    1
    48     1    31    1
    49     1    27    1
    50     2    32    1
    51     2    28    1
    52     4    34    1
    53     4    30    1
