@<TRIPOS>MOLECULE
*****
 50 53 0 0 0
SMALL
GASTEIGER

@<TRIPOS>ATOM
     1 C         -1.451118   -1.334621   0.940132 C.3        1 UNL1     0.1889
     2 C         -0.876801   -0.589763   -0.294893 C.3        1 UNL1     0.1342
     3 C         -1.878471   0.32681   -1.013931 C.3        1 UNL1     0.1174
     4 C         -3.306123   -0.225125   -0.996811 C.3        1 UNL1     0.1456
     5 C         -3.729314   -0.724157   0.396832 C.3        1 UNL1     0.2326
     6 O         -2.815711   -1.718139   0.855304 O.3        1 UNL1     -0.3076
     7 O         -3.935271   0.336661   1.347395 O.3        1 UNL1     -0.4605
     8 C         -4.904826   0.110334   2.307742 C.ar        1 UNL1     0.1310
     9 C         -6.181504   -0.407361   2.064051 C.ar        1 UNL1     0.0226
     10 C         -7.089153   -0.616818   3.109137 C.ar        1 UNL1     0.1343
     11 C         -6.733257   -0.335676   4.427522 C.ar        1 UNL1     0.1007
     12 C         -5.475954   0.220128   4.678628 C.ar        1 UNL1     0.1389
     13 C         -4.564461   0.433113   3.62732 C.ar        1 UNL1     0.0229
     14 C         -7.622043   -0.616074   5.578864 C.2        1 UNL1     0.1740
     15 C         -6.997024   -0.461775   6.934258 C.3        1 UNL1     0.0520
     16 C         -6.103882   0.771067   6.915427 C.3        1 UNL1     0.1322
     17 O         -5.062556   0.634776   5.923392 O.3        1 UNL1     -0.4828
     18 C         -6.87642   2.090624   6.847013 C.ar        1 UNL1     -0.0067
     19 C         -6.487828   3.073006   5.913131 C.ar        1 UNL1     -0.0516
     20 C         -7.142584   4.309147   5.856459 C.ar        1 UNL1     -0.0198
     21 C         -8.180251   4.577275   6.731206 C.ar        1 UNL1     0.1169
     22 C         -8.607693   3.617519   7.639501 C.ar        1 UNL1     -0.0198
     23 C         -7.965181   2.374434   7.68394 C.ar        1 UNL1     -0.0516
     24 O         -8.769269   5.806077   6.672009 O.3        1 UNL1     -0.5068
     25 O         -8.773379   -1.026873   5.459892 O.2        1 UNL1     -0.2917
     26 O         -8.318813   -1.123322   2.80422 O.3        1 UNL1     -0.5058
     27 O         -1.16318   -0.692417   2.171982 O.3        1 UNL1     -0.3648
     28 O         -0.429572   -1.568988   -1.250828 O.3        1 UNL1     -0.3841
     29 O         -1.795223   1.661963   -0.511369 O.3        1 UNL1     -0.3863
     30 O         -3.401127   -1.322209   -1.931193 O.3        1 UNL1     -0.3829
     31 H         -0.919947   -2.290593   1.003796 H        1 UNL1     0.0937
     32 H         0.0   0.0   0.0 H        1 UNL1     0.0671
     33 H         -1.575781   0.392543   -2.06834 H        1 UNL1     0.0649
     34 H         -4.008834   0.544873   -1.334007 H        1 UNL1     0.0683
     35 H         -4.686666   -1.229313   0.217463 H        1 UNL1     0.1085
     36 H         -6.498359   -0.698316   1.068527 H        1 UNL1     0.0691
     37 H         -3.592275   0.868062   3.849054 H        1 UNL1     0.0691
     38 H         -6.415518   -1.367715   7.135878 H        1 UNL1     0.0385
     39 H         -7.788263   -0.388365   7.688134 H        1 UNL1     0.0385
     40 H         -5.568151   0.797346   7.873979 H        1 UNL1     0.0789
     41 H         -5.670291   2.890349   5.221814 H        1 UNL1     0.0623
     42 H         -6.82585   5.062939   5.139879 H        1 UNL1     0.0654
     43 H         -9.429084   3.811452   8.318925 H        1 UNL1     0.0654
     44 H         -8.332196   1.644333   8.39885 H        1 UNL1     0.0623
     45 H         -8.102045   6.476843   6.89019 H        1 UNL1     0.2921
     46 H         -8.468453   -1.936828   3.311396 H        1 UNL1     0.2922
     47 H         -0.210257   -0.551778   2.261528 H        1 UNL1     0.2126
     48 H         0.302529   -2.058199   -0.828416 H        1 UNL1     0.2101
     49 H         -0.956727   2.066197   -0.785802 H        1 UNL1     0.2100
     50 H         -3.272654   -0.962055   -2.833134 H        1 UNL1     0.2102
@<TRIPOS>BOND
     1     1     2    1
     2     1     6    1
     3     2     3    1
     4     3     4    1
     5     3    29    1
     6     3    33    1
     7     4     5    1
     8     5     6    1
     9     5     7    1
    10     5    35    1
    11     7     8    1
    12     8     9   ar
    13     8    13   ar
    14     9    10   ar
    15     9    36    1
    16    10    11   ar
    17    10    26    1
    18    11    12   ar
    19    11    14    1
    20    12    13   ar
    21    12    17    1
    22    13    37    1
    23    14    15    1
    24    14    25    2
    25    15    16    1
    26    15    38    1
    27    15    39    1
    28    16    17    1
    29    16    18    1
    30    16    40    1
    31    18    19   ar
    32    18    23   ar
    33    19    20   ar
    34    19    41    1
    35    20    21   ar
    36    20    42    1
    37    21    22   ar
    38    21    24    1
    39    22    23   ar
    40    22    43    1
    41    23    44    1
    42    24    45    1
    43    26    46    1
    44    27    47    1
    45    28    48    1
    46    29    49    1
    47    30    50    1
    48     1    31    1
    49     1    27    1
    50     2    32    1
    51     2    28    1
    52     4    34    1
    53     4    30    1
