@<TRIPOS>MOLECULE
*****
 50 53 0 0 0
SMALL
GASTEIGER

@<TRIPOS>ATOM
     1 C         -0.519558   -1.197111   1.751511 C.3        1 UNL1     0.1889
     2 C         -0.511782   -0.945182   0.21971 C.3        1 UNL1     0.1342
     3 C         -1.901988   -0.926034   -0.434067 C.3        1 UNL1     0.1174
     4 C         -2.877436   -1.910028   0.216606 C.3        1 UNL1     0.1456
     5 C         -2.85455   -1.834152   1.754163 C.3        1 UNL1     0.2326
     6 O         -1.532114   -2.068618   2.232761 O.3        1 UNL1     -0.3076
     7 O         -3.440127   -0.628039   2.277336 O.3        1 UNL1     -0.4605
     8 C         -4.070829   -0.742599   3.50315 C.ar        1 UNL1     0.1310
     9 C         -4.959677   -1.760543   3.865143 C.ar        1 UNL1     0.0226
     10 C         -5.535399   -1.798924   5.140672 C.ar        1 UNL1     0.1343
     11 C         -5.217469   -0.832558   6.094033 C.ar        1 UNL1     0.1007
     12 C         -4.362985   0.211854   5.730931 C.ar        1 UNL1     0.1389
     13 C         -3.786289   0.251691   4.447473 C.ar        1 UNL1     0.0229
     14 C         -5.731148   -0.87182   7.482826 C.2        1 UNL1     0.1740
     15 C         -5.114045   0.113505   8.43144 C.3        1 UNL1     0.0520
     16 C         -4.931076   1.436408   7.700408 C.3        1 UNL1     0.1322
     17 O         -4.06715   1.27358   6.554027 O.3        1 UNL1     -0.4828
     18 C         -6.244769   2.164743   7.406362 C.ar        1 UNL1     -0.0067
     19 C         -6.480012   2.673441   6.112492 C.ar        1 UNL1     -0.0516
     20 C         -7.649852   3.385678   5.822398 C.ar        1 UNL1     -0.0198
     21 C         -8.586675   3.601789   6.817127 C.ar        1 UNL1     0.1169
     22 C         -8.398892   3.084535   8.092284 C.ar        1 UNL1     -0.0198
     23 C         -7.237701   2.356414   8.377826 C.ar        1 UNL1     -0.0516
     24 O         -9.696052   4.3323   6.507231 O.3        1 UNL1     -0.5068
     25 O         -6.548714   -1.69872   7.878183 O.2        1 UNL1     -0.2917
     26 O         -6.395357   -2.817856   5.430215 O.3        1 UNL1     -0.5058
     27 O         -0.443632   -0.007308   2.52053 O.3        1 UNL1     -0.3648
     28 O         0.243988   -1.995498   -0.411442 O.3        1 UNL1     -0.3841
     29 O         -2.416351   0.405921   -0.49287 O.3        1 UNL1     -0.3863
     30 O         -2.5346   -3.253657   -0.186897 O.3        1 UNL1     -0.3829
     31 H         0.408891   -1.729278   1.985732 H        1 UNL1     0.0937
     32 H         0.0   0.0   0.0 H        1 UNL1     0.0671
     33 H         -1.78472   -1.239986   -1.480682 H        1 UNL1     0.0649
     34 H         -3.895553   -1.718233   -0.13984 H        1 UNL1     0.0683
     35 H         -3.464527   -2.689632   2.070329 H        1 UNL1     0.1085
     36 H         -5.203833   -2.571798   3.18811 H        1 UNL1     0.0691
     37 H         -3.125069   1.07605   4.189182 H        1 UNL1     0.0691
     38 H         -4.150835   -0.295986   8.754041 H        1 UNL1     0.0385
     39 H         -5.755995   0.213116   9.313344 H        1 UNL1     0.0385
     40 H         -4.3733   2.102955   8.372064 H        1 UNL1     0.0789
     41 H         -5.755894   2.5251   5.316691 H        1 UNL1     0.0623
     42 H         -7.814202   3.783153   4.823892 H        1 UNL1     0.0654
     43 H         -9.133073   3.234974   8.874751 H        1 UNL1     0.0654
     44 H         -7.128673   1.957794   9.381848 H        1 UNL1     0.0623
     45 H         -9.413913   5.226533   6.255314 H        1 UNL1     0.2921
     46 H         -6.079657   -3.294789   6.213975 H        1 UNL1     0.2922
     47 H         0.33397   0.507963   2.264227 H        1 UNL1     0.2126
     48 H         1.16205   -1.911985   -0.089075 H        1 UNL1     0.2101
     49 H         -1.910641   0.926847   -1.136833 H        1 UNL1     0.2100
     50 H         -2.693825   -3.328953   -1.150583 H        1 UNL1     0.2102
@<TRIPOS>BOND
     1     1     2    1
     2     1     6    1
     3     2     3    1
     4     3     4    1
     5     3    29    1
     6     3    33    1
     7     4     5    1
     8     5     6    1
     9     5     7    1
    10     5    35    1
    11     7     8    1
    12     8     9   ar
    13     8    13   ar
    14     9    10   ar
    15     9    36    1
    16    10    11   ar
    17    10    26    1
    18    11    12   ar
    19    11    14    1
    20    12    13   ar
    21    12    17    1
    22    13    37    1
    23    14    15    1
    24    14    25    2
    25    15    16    1
    26    15    38    1
    27    15    39    1
    28    16    17    1
    29    16    18    1
    30    16    40    1
    31    18    19   ar
    32    18    23   ar
    33    19    20   ar
    34    19    41    1
    35    20    21   ar
    36    20    42    1
    37    21    22   ar
    38    21    24    1
    39    22    23   ar
    40    22    43    1
    41    23    44    1
    42    24    45    1
    43    26    46    1
    44    27    47    1
    45    28    48    1
    46    29    49    1
    47    30    50    1
    48     1    31    1
    49     1    27    1
    50     2    32    1
    51     2    28    1
    52     4    34    1
    53     4    30    1
