@<TRIPOS>MOLECULE
*****
 50 53 0 0 0
SMALL
GASTEIGER

@<TRIPOS>ATOM
     1 C         -0.370668   -1.397909   1.636844 C.3        1 UNL1     0.1889
     2 C         -0.487796   -0.971325   0.14881 C.3        1 UNL1     0.1342
     3 C         -1.92632   -0.896743   -0.385561 C.3        1 UNL1     0.1174
     4 C         -2.841285   -1.962759   0.222358 C.3        1 UNL1     0.1456
     5 C         -2.694716   -2.063977   1.751618 C.3        1 UNL1     0.2326
     6 O         -1.33684   -2.333229   2.093006 O.3        1 UNL1     -0.3076
     7 O         -3.241974   -0.934469   2.455919 O.3        1 UNL1     -0.4605
     8 C         -3.771098   -1.198212   3.706517 C.ar        1 UNL1     0.1310
     9 C         -4.614546   -2.269464   4.020068 C.ar        1 UNL1     0.0226
     10 C         -5.085911   -2.461813   5.324184 C.ar        1 UNL1     0.1343
     11 C         -4.705679   -1.600332   6.352346 C.ar        1 UNL1     0.1007
     12 C         -3.896923   -0.50342   6.043347 C.ar        1 UNL1     0.1389
     13 C         -3.425241   -0.308724   4.731463 C.ar        1 UNL1     0.0229
     14 C         -5.10614   -1.804742   7.763729 C.2        1 UNL1     0.1740
     15 C         -4.428351   -0.917269   8.765997 C.3        1 UNL1     0.0520
     16 C         -4.322015   0.482274   8.17614 C.3        1 UNL1     0.1322
     17 O         -3.550395   0.466766   6.954898 O.3        1 UNL1     -0.4828
     18 C         -5.664581   1.20944   8.069044 C.ar        1 UNL1     -0.0067
     19 C         -5.760176   2.374535   7.28061 C.ar        1 UNL1     -0.0516
     20 C         -6.96067   3.09016   7.199027 C.ar        1 UNL1     -0.0198
     21 C         -8.068155   2.656114   7.905363 C.ar        1 UNL1     0.1169
     22 C         -8.014531   1.493832   8.663693 C.ar        1 UNL1     -0.0198
     23 C         -6.819357   0.767802   8.730741 C.ar        1 UNL1     -0.0516
     24 O         -9.209199   3.39975   7.831717 O.3        1 UNL1     -0.5068
     25 O         -5.878415   -2.688296   8.12623 O.2        1 UNL1     -0.2917
     26 O         -5.906342   -3.525371   5.563603 O.3        1 UNL1     -0.5058
     27 O         -0.238665   -0.303534   2.529988 O.3        1 UNL1     -0.3648
     28 O         0.219627   -1.931256   -0.657907 O.3        1 UNL1     -0.3841
     29 O         -2.450188   0.425726   -0.248555 O.3        1 UNL1     -0.3863
     30 O         -2.525645   -3.246056   -0.360059 O.3        1 UNL1     -0.3829
     31 H         0.576222   -1.940309   1.733174 H        1 UNL1     0.0937
     32 H         0.0   0.0   0.0 H        1 UNL1     0.0671
     33 H         -1.892408   -1.0865   -1.467487 H        1 UNL1     0.0649
     34 H         -3.88577   -1.745642   -0.027266 H        1 UNL1     0.0683
     35 H         -3.273033   -2.958691   2.014134 H        1 UNL1     0.1085
     36 H         -4.901222   -3.005841   3.277311 H        1 UNL1     0.0691
     37 H         -2.797808   0.55364   4.516642 H        1 UNL1     0.0691
     38 H         -3.437075   -1.338569   8.964506 H        1 UNL1     0.0385
     39 H         -4.999024   -0.930324   9.700845 H        1 UNL1     0.0385
     40 H         -3.721255   1.082415   8.872874 H        1 UNL1     0.0789
     41 H         -4.902574   2.740971   6.723928 H        1 UNL1     0.0623
     42 H         -7.018408   3.993708   6.597131 H        1 UNL1     0.0654
     43 H         -8.880098   1.136658   9.208789 H        1 UNL1     0.0654
     44 H         -6.8163   -0.141374   9.324236 H        1 UNL1     0.0623
     45 H         -9.039736   4.262995   8.242578 H        1 UNL1     0.2921
     46 H         -5.533834   -4.067124   6.277153 H        1 UNL1     0.2922
     47 H         0.506463   0.254825   2.267539 H        1 UNL1     0.2126
     48 H         1.166083   -1.840683   -0.43486 H        1 UNL1     0.2101
     49 H         -2.134559   0.982904   -0.977749 H        1 UNL1     0.2100
     50 H         -2.824075   -3.235318   -1.293085 H        1 UNL1     0.2102
@<TRIPOS>BOND
     1     1     2    1
     2     1     6    1
     3     2     3    1
     4     3     4    1
     5     3    29    1
     6     3    33    1
     7     4     5    1
     8     5     6    1
     9     5     7    1
    10     5    35    1
    11     7     8    1
    12     8     9   ar
    13     8    13   ar
    14     9    10   ar
    15     9    36    1
    16    10    11   ar
    17    10    26    1
    18    11    12   ar
    19    11    14    1
    20    12    13   ar
    21    12    17    1
    22    13    37    1
    23    14    15    1
    24    14    25    2
    25    15    16    1
    26    15    38    1
    27    15    39    1
    28    16    17    1
    29    16    18    1
    30    16    40    1
    31    18    19   ar
    32    18    23   ar
    33    19    20   ar
    34    19    41    1
    35    20    21   ar
    36    20    42    1
    37    21    22   ar
    38    21    24    1
    39    22    23   ar
    40    22    43    1
    41    23    44    1
    42    24    45    1
    43    26    46    1
    44    27    47    1
    45    28    48    1
    46    29    49    1
    47    30    50    1
    48     1    31    1
    49     1    27    1
    50     2    32    1
    51     2    28    1
    52     4    34    1
    53     4    30    1
