@<TRIPOS>MOLECULE
*****
 50 53 0 0 0
SMALL
GASTEIGER

@<TRIPOS>ATOM
     1 C         -0.368021   -1.396377   1.638748 C.3        1 UNL1     0.1889
     2 C         -0.486345   -0.971835   0.150224 C.3        1 UNL1     0.1342
     3 C         -1.925184   -0.899987   -0.383672 C.3        1 UNL1     0.1174
     4 C         -2.838381   -1.966547   0.225949 C.3        1 UNL1     0.1456
     5 C         -2.691066   -2.06563   1.755277 C.3        1 UNL1     0.2326
     6 O         -1.332672   -2.332506   2.096468 O.3        1 UNL1     -0.3076
     7 O         -3.239666   -0.936021   2.458373 O.3        1 UNL1     -0.4605
     8 C         -3.907732   -1.220897   3.635684 C.ar        1 UNL1     0.1310
     9 C         -4.845365   -2.244838   3.807986 C.ar        1 UNL1     0.0226
     10 C         -5.456892   -2.465066   5.04792 C.ar        1 UNL1     0.1343
     11 C         -5.127594   -1.681041   6.152776 C.ar        1 UNL1     0.1007
     12 C         -4.223218   -0.629346   5.982997 C.ar        1 UNL1     0.1389
     13 C         -3.610444   -0.406437   4.7355 C.ar        1 UNL1     0.0229
     14 C         -5.680288   -1.923213   7.505565 C.2        1 UNL1     0.1740
     15 C         -5.051286   -1.132628   8.615016 C.3        1 UNL1     0.0520
     16 C         -4.796661   0.282326   8.113987 C.3        1 UNL1     0.1322
     17 O         -3.908683   0.270798   6.974499 O.3        1 UNL1     -0.4828
     18 C         -6.072258   1.104718   7.915877 C.ar        1 UNL1     -0.0067
     19 C         -6.336716   2.190558   8.77566 C.ar        1 UNL1     -0.0516
     20 C         -7.51666   2.933811   8.652088 C.ar        1 UNL1     -0.0198
     21 C         -8.441409   2.597425   7.679714 C.ar        1 UNL1     0.1169
     22 C         -8.193965   1.554497   6.796588 C.ar        1 UNL1     -0.0198
     23 C         -7.00564   0.822712   6.908074 C.ar        1 UNL1     -0.0516
     24 O         -9.596292   3.320136   7.613863 O.3        1 UNL1     -0.5068
     25 O         -6.540151   -2.767322   7.743474 O.2        1 UNL1     -0.2917
     26 O         -6.363723   -3.479456   5.149198 O.3        1 UNL1     -0.5058
     27 O         -0.237235   -0.300691   2.530462 O.3        1 UNL1     -0.3648
     28 O         0.222137   -1.931766   -0.655563 O.3        1 UNL1     -0.3841
     29 O         -2.450894   0.421901   -0.248123 O.3        1 UNL1     -0.3863
     30 O         -2.521131   -3.250123   -0.354978 O.3        1 UNL1     -0.3829
     31 H         0.579684   -1.937299   1.735386 H        1 UNL1     0.0937
     32 H         0.0   0.0   0.0 H        1 UNL1     0.0671
     33 H         -1.891425   -1.091056   -1.465371 H        1 UNL1     0.0649
     34 H         -3.883274   -1.75124   -0.023535 H        1 UNL1     0.0683
     35 H         -3.267996   -2.960841   2.019147 H        1 UNL1     0.1085
     36 H         -5.10247   -2.924033   3.00256 H        1 UNL1     0.0691
     37 H         -2.910604   0.419641   4.62914 H        1 UNL1     0.0691
     38 H         -4.114063   -1.630239   8.886169 H        1 UNL1     0.0385
     39 H         -5.712771   -1.150024   9.487892 H        1 UNL1     0.0385
     40 H         -4.231818   0.806221   8.896934 H        1 UNL1     0.0789
     41 H         -5.630952   2.468935   9.552869 H        1 UNL1     0.0623
     42 H         -7.714575   3.761407   9.32879 H        1 UNL1     0.0654
     43 H         -8.904441   1.2921   6.021809 H        1 UNL1     0.0654
     44 H         -6.840232   0.021215   6.19457 H        1 UNL1     0.0623
     45 H         -9.546069   3.909018   6.84353 H        1 UNL1     0.2921
     46 H         -6.262678   -3.919169   6.008183 H        1 UNL1     0.2922
     47 H         0.650662   -0.285461   2.914215 H        1 UNL1     0.2126
     48 H         -0.334324   -2.103949   -1.439423 H        1 UNL1     0.2101
     49 H         -2.999171   0.478711   0.5506 H        1 UNL1     0.2100
     50 H         -1.985454   -3.750944   0.294592 H        1 UNL1     0.2102
@<TRIPOS>BOND
     1     1     2    1
     2     1     6    1
     3     2     3    1
     4     3     4    1
     5     3    29    1
     6     3    33    1
     7     4     5    1
     8     5     6    1
     9     5     7    1
    10     5    35    1
    11     7     8    1
    12     8     9   ar
    13     8    13   ar
    14     9    10   ar
    15     9    36    1
    16    10    11   ar
    17    10    26    1
    18    11    12   ar
    19    11    14    1
    20    12    13   ar
    21    12    17    1
    22    13    37    1
    23    14    15    1
    24    14    25    2
    25    15    16    1
    26    15    38    1
    27    15    39    1
    28    16    17    1
    29    16    18    1
    30    16    40    1
    31    18    19   ar
    32    18    23   ar
    33    19    20   ar
    34    19    41    1
    35    20    21   ar
    36    20    42    1
    37    21    22   ar
    38    21    24    1
    39    22    23   ar
    40    22    43    1
    41    23    44    1
    42    24    45    1
    43    26    46    1
    44    27    47    1
    45    28    48    1
    46    29    49    1
    47    30    50    1
    48     1    31    1
    49     1    27    1
    50     2    32    1
    51     2    28    1
    52     4    34    1
    53     4    30    1
