@<TRIPOS>MOLECULE
*****
 50 53 0 0 0
SMALL
GASTEIGER

@<TRIPOS>ATOM
     1 C         0.322902   -1.872752   1.076726 C.3        1 UNL1     0.1889
     2 C         -0.516293   -0.607284   0.753796 C.3        1 UNL1     0.1342
     3 C         -0.842029   0.27362   1.969678 C.3        1 UNL1     0.1174
     4 C         -1.066105   -0.53831   3.247831 C.3        1 UNL1     0.1456
     5 C         0.017298   -1.610762   3.463352 C.3        1 UNL1     0.2326
     6 O         0.071277   -2.480766   2.335057 O.3        1 UNL1     -0.3076
     7 O         1.300764   -1.06554   3.819398 O.3        1 UNL1     -0.4605
     8 C         1.287176   -0.038249   4.74569 C.ar        1 UNL1     0.1310
     9 C         2.266274   0.188236   5.71902 C.ar        1 UNL1     0.0226
     10 C         2.17124   1.269385   6.603321 C.ar        1 UNL1     0.1343
     11 C         1.105916   2.164934   6.520142 C.ar        1 UNL1     0.1007
     12 C         0.100853   1.925749   5.579173 C.ar        1 UNL1     0.1389
     13 C         0.195287   0.83708   4.691867 C.ar        1 UNL1     0.0229
     14 C         0.99917   3.370935   7.373559 C.2        1 UNL1     0.1740
     15 C         -0.086501   4.336892   6.999665 C.3        1 UNL1     0.0520
     16 C         -1.324393   3.54213   6.607319 C.3        1 UNL1     0.1322
     17 O         -1.04513   2.680421   5.481913 O.3        1 UNL1     -0.4828
     18 C         -2.008079   2.844824   7.785903 C.ar        1 UNL1     -0.0067
     19 C         -1.459671   1.650475   8.296778 C.ar        1 UNL1     -0.0516
     20 C         -2.086022   0.962221   9.3427 C.ar        1 UNL1     -0.0198
     21 C         -3.262521   1.452954   9.880156 C.ar        1 UNL1     0.1169
     22 C         -3.809013   2.644279   9.420886 C.ar        1 UNL1     -0.0198
     23 C         -3.172955   3.342449   8.387423 C.ar        1 UNL1     -0.0516
     24 O         -3.864194   0.735573   10.872001 O.3        1 UNL1     -0.5068
     25 O         1.784271   3.627642   8.282516 O.2        1 UNL1     -0.2917
     26 O         3.15891   1.433815   7.530173 O.3        1 UNL1     -0.5058
     27 O         1.71238   -1.703962   0.845105 O.3        1 UNL1     -0.3648
     28 O         -1.768703   -1.02484   0.179495 O.3        1 UNL1     -0.3841
     29 O         0.140097   1.299142   2.130504 O.3        1 UNL1     -0.3863
     30 O         -2.354186   -1.18755   3.176939 O.3        1 UNL1     -0.3829
     31 H         0.02077   -2.640711   0.356285 H        1 UNL1     0.0937
     32 H         0.0   0.0   0.0 H        1 UNL1     0.0671
     33 H         -1.782876   0.801095   1.759206 H        1 UNL1     0.0649
     34 H         -1.091272   0.129873   4.115759 H        1 UNL1     0.0683
     35 H         -0.361197   -2.203635   4.305446 H        1 UNL1     0.1085
     36 H         3.147202   -0.439276   5.798496 H        1 UNL1     0.0691
     37 H         -0.600966   0.672077   3.969199 H        1 UNL1     0.0691
     38 H         0.27948   4.937801   6.160325 H        1 UNL1     0.0385
     39 H         -0.275985   5.008339   7.844078 H        1 UNL1     0.0385
     40 H         -2.062981   4.260438   6.226475 H        1 UNL1     0.0789
     41 H         -0.541997   1.239771   7.885866 H        1 UNL1     0.0623
     42 H         -1.659678   0.035977   9.719946 H        1 UNL1     0.0654
     43 H         -4.72185   3.045445   9.844802 H        1 UNL1     0.0654
     44 H         -3.622058   4.275326   8.060479 H        1 UNL1     0.0623
     45 H         -4.014358   -0.16777   10.549294 H        1 UNL1     0.2921
     46 H         3.472756   2.351677   7.50914 H        1 UNL1     0.2922
     47 H         1.861969   -1.32553   -0.032546 H        1 UNL1     0.2126
     48 H         -1.614228   -1.902216   -0.220606 H        1 UNL1     0.2101
     49 H         0.796847   1.026477   2.790904 H        1 UNL1     0.2100
     50 H         -3.041791   -0.513904   3.358908 H        1 UNL1     0.2102
@<TRIPOS>BOND
     1     1     2    1
     2     1     6    1
     3     2     3    1
     4     3     4    1
     5     3    29    1
     6     3    33    1
     7     4     5    1
     8     5     6    1
     9     5     7    1
    10     5    35    1
    11     7     8    1
    12     8     9   ar
    13     8    13   ar
    14     9    10   ar
    15     9    36    1
    16    10    11   ar
    17    10    26    1
    18    11    12   ar
    19    11    14    1
    20    12    13   ar
    21    12    17    1
    22    13    37    1
    23    14    15    1
    24    14    25    2
    25    15    16    1
    26    15    38    1
    27    15    39    1
    28    16    17    1
    29    16    18    1
    30    16    40    1
    31    18    19   ar
    32    18    23   ar
    33    19    20   ar
    34    19    41    1
    35    20    21   ar
    36    20    42    1
    37    21    22   ar
    38    21    24    1
    39    22    23   ar
    40    22    43    1
    41    23    44    1
    42    24    45    1
    43    26    46    1
    44    27    47    1
    45    28    48    1
    46    29    49    1
    47    30    50    1
    48     1    31    1
    49     1    27    1
    50     2    32    1
    51     2    28    1
    52     4    34    1
    53     4    30    1
