@<TRIPOS>MOLECULE
*****
 50 53 0 0 0
SMALL
GASTEIGER

@<TRIPOS>ATOM
     1 C         -0.334196   -1.329013   1.700836 C.3        1 UNL1     0.1889
     2 C         -0.463706   -0.974961   0.194909 C.3        1 UNL1     0.1342
     3 C         -1.904336   -0.960332   -0.338791 C.3        1 UNL1     0.1174
     4 C         -2.792154   -2.018941   0.32018 C.3        1 UNL1     0.1456
     5 C         -2.64111   -2.045443   1.852122 C.3        1 UNL1     0.2326
     6 O         -1.276603   -2.265399   2.202277 O.3        1 UNL1     -0.3076
     7 O         -3.214875   -0.898117   2.504622 O.3        1 UNL1     -0.4605
     8 C         -3.725109   -1.113722   3.77218 C.ar        1 UNL1     0.1310
     9 C         -4.542718   -2.186015   4.145012 C.ar        1 UNL1     0.0226
     10 C         -4.996126   -2.326643   5.462034 C.ar        1 UNL1     0.1343
     11 C         -4.623018   -1.410454   6.444494 C.ar        1 UNL1     0.1007
     12 C         -3.840576   -0.313025   6.075416 C.ar        1 UNL1     0.1389
     13 C         -3.386982   -0.17041   4.750522 C.ar        1 UNL1     0.0229
     14 C         -5.004153   -1.556669   7.868401 C.2        1 UNL1     0.1740
     15 C         -4.334384   -0.609697   8.820348 C.3        1 UNL1     0.0520
     16 C         -4.263445   0.762576   8.164761 C.3        1 UNL1     0.1322
     17 O         -3.50466   0.705587   6.936727 O.3        1 UNL1     -0.4828
     18 C         -5.621907   1.45655   8.039447 C.ar        1 UNL1     -0.0067
     19 C         -6.000117   2.020479   6.803666 C.ar        1 UNL1     -0.0516
     20 C         -7.214613   2.70341   6.6674 C.ar        1 UNL1     -0.0198
     21 C         -8.054401   2.835331   7.758811 C.ar        1 UNL1     0.1169
     22 C         -7.724984   2.262077   8.980164 C.ar        1 UNL1     -0.0198
     23 C         -6.519048   1.563207   9.111902 C.ar        1 UNL1     -0.0516
     24 O         -9.211297   3.539687   7.597947 O.3        1 UNL1     -0.5068
     25 O         -5.753994   -2.437774   8.280562 O.2        1 UNL1     -0.2917
     26 O         -5.79167   -3.394255   5.760195 O.3        1 UNL1     -0.5058
     27 O         -0.227791   -0.191457   2.541926 O.3        1 UNL1     -0.3648
     28 O         0.265893   -1.953798   -0.568157 O.3        1 UNL1     -0.3841
     29 O         -2.460194   0.353919   -0.261982 O.3        1 UNL1     -0.3863
     30 O         -2.446017   -3.319828   -0.202861 O.3        1 UNL1     -0.3829
     31 H         0.625799   -1.84313   1.819882 H        1 UNL1     0.0937
     32 H         0.0   0.0   0.0 H        1 UNL1     0.0671
     33 H         -1.867242   -1.199238   -1.41083 H        1 UNL1     0.0649
     34 H         -3.841968   -1.839154   0.063335 H        1 UNL1     0.0683
     35 H         -3.197031   -2.940824   2.157286 H        1 UNL1     0.1085
     36 H         -4.821872   -2.962009   3.440719 H        1 UNL1     0.0691
     37 H         -2.779937   0.693506   4.488532 H        1 UNL1     0.0691
     38 H         -3.33251   -1.001051   9.026787 H        1 UNL1     0.0385
     39 H         -4.894718   -0.590561   9.761324 H        1 UNL1     0.0385
     40 H         -3.667946   1.406728   8.825797 H        1 UNL1     0.0789
     41 H         -5.354256   1.938524   5.9343 H        1 UNL1     0.0623
     42 H         -7.489539   3.144123   5.712309 H        1 UNL1     0.0654
     43 H         -8.382242   2.346428   9.837372 H        1 UNL1     0.0654
     44 H         -6.29856   1.119067   10.077806 H        1 UNL1     0.0623
     45 H         -8.984221   4.447132   7.337761 H        1 UNL1     0.2921
     46 H         -5.388507   -3.907651   6.478035 H        1 UNL1     0.2922
     47 H         0.515961   0.36155   2.26466 H        1 UNL1     0.2126
     48 H         1.198794   -1.889291   -0.286613 H        1 UNL1     0.2101
     49 H         -2.020394   0.936158   -0.9018 H        1 UNL1     0.2100
     50 H         -2.678958   -3.333985   -1.154308 H        1 UNL1     0.2102
@<TRIPOS>BOND
     1     1     2    1
     2     1     6    1
     3     2     3    1
     4     3     4    1
     5     3    29    1
     6     3    33    1
     7     4     5    1
     8     5     6    1
     9     5     7    1
    10     5    35    1
    11     7     8    1
    12     8     9   ar
    13     8    13   ar
    14     9    10   ar
    15     9    36    1
    16    10    11   ar
    17    10    26    1
    18    11    12   ar
    19    11    14    1
    20    12    13   ar
    21    12    17    1
    22    13    37    1
    23    14    15    1
    24    14    25    2
    25    15    16    1
    26    15    38    1
    27    15    39    1
    28    16    17    1
    29    16    18    1
    30    16    40    1
    31    18    19   ar
    32    18    23   ar
    33    19    20   ar
    34    19    41    1
    35    20    21   ar
    36    20    42    1
    37    21    22   ar
    38    21    24    1
    39    22    23   ar
    40    22    43    1
    41    23    44    1
    42    24    45    1
    43    26    46    1
    44    27    47    1
    45    28    48    1
    46    29    49    1
    47    30    50    1
    48     1    31    1
    49     1    27    1
    50     2    32    1
    51     2    28    1
    52     4    34    1
    53     4    30    1
