@<TRIPOS>MOLECULE
*****
 50 53 0 0 0
SMALL
GASTEIGER

@<TRIPOS>ATOM
     1 C         1.246909   0.976904   -1.503889 C.3        1 UNL1     0.1889
     2 C         -0.104876   0.385022   -1.02192 C.3        1 UNL1     0.1342
     3 C         -0.675617   -0.723928   -1.91911 C.3        1 UNL1     0.1174
     4 C         -0.377061   -0.49892   -3.403479 C.3        1 UNL1     0.1456
     5 C         1.091891   -0.114818   -3.658449 C.3        1 UNL1     0.2326
     6 O         1.426008   1.052169   -2.910535 O.3        1 UNL1     -0.3076
     7 O         2.012592   -1.201679   -3.452623 O.3        1 UNL1     -0.4605
     8 C         3.103157   -0.927982   -2.64684 C.ar        1 UNL1     0.1310
     9 C         3.590004   -1.759213   -1.632278 C.ar        1 UNL1     0.0226
     10 C         4.714933   -1.400433   -0.880138 C.ar        1 UNL1     0.1343
     11 C         5.395179   -0.211607   -1.140522 C.ar        1 UNL1     0.1007
     12 C         4.894303   0.645982   -2.123603 C.ar        1 UNL1     0.1389
     13 C         3.76162   0.286239   -2.877953 C.ar        1 UNL1     0.0229
     14 C         6.637448   0.176875   -0.433413 C.2        1 UNL1     0.1740
     15 C         7.355871   1.370344   -0.991131 C.3        1 UNL1     0.0520
     16 C         6.320659   2.413839   -1.38788 C.3        1 UNL1     0.1322
     17 O         5.420892   1.888818   -2.388801 O.3        1 UNL1     -0.4828
     18 C         5.626271   3.077136   -0.195997 C.ar        1 UNL1     -0.0067
     19 C         4.869655   4.249399   -0.39983 C.ar        1 UNL1     -0.0516
     20 C         4.261059   4.907589   0.675511 C.ar        1 UNL1     -0.0198
     21 C         4.407376   4.408805   1.957554 C.ar        1 UNL1     0.1169
     22 C         5.11841   3.237836   2.18581 C.ar        1 UNL1     -0.0198
     23 C         5.711683   2.569243   1.108282 C.ar        1 UNL1     -0.0516
     24 O         3.832018   5.097701   2.984582 O.3        1 UNL1     -0.5068
     25 O         7.113412   -0.464934   0.499338 O.2        1 UNL1     -0.2917
     26 O         5.138166   -2.254915   0.095731 O.3        1 UNL1     -0.5058
     27 O         2.375463   0.404844   -0.862095 O.3        1 UNL1     -0.3648
     28 O         -1.077915   1.445272   -0.979853 O.3        1 UNL1     -0.3841
     29 O         -0.259945   -2.011783   -1.460002 O.3        1 UNL1     -0.3863
     30 O         -1.226267   0.557155   -3.902724 O.3        1 UNL1     -0.3829
     31 H         1.259704   2.025671   -1.187657 H        1 UNL1     0.0937
     32 H         0.0   -0.0   0.0 H        1 UNL1     0.0671
     33 H         -1.769091   -0.714156   -1.809836 H        1 UNL1     0.0649
     34 H         -0.619134   -1.401963   -3.974718 H        1 UNL1     0.0683
     35 H         1.110949   0.169164   -4.718104 H        1 UNL1     0.1085
     36 H         3.139227   -2.72216   -1.418612 H        1 UNL1     0.0691
     37 H         3.390929   0.971932   -3.636838 H        1 UNL1     0.0691
     38 H         7.931094   1.034237   -1.860428 H        1 UNL1     0.0385
     39 H         8.058929   1.748811   -0.241297 H        1 UNL1     0.0385
     40 H         6.857497   3.224258   -1.899297 H        1 UNL1     0.0789
     41 H         4.747449   4.666091   -1.395362 H        1 UNL1     0.0623
     42 H         3.690107   5.817325   0.506971 H        1 UNL1     0.0654
     43 H         5.226646   2.830204   3.183825 H        1 UNL1     0.0654
     44 H         6.250949   1.651392   1.321794 H        1 UNL1     0.0623
     45 H         3.032302   5.535273   2.650366 H        1 UNL1     0.2921
     46 H         5.67687   -2.957674   -0.300928 H        1 UNL1     0.2922
     47 H         2.685909   -0.366979   -1.355827 H        1 UNL1     0.2126
     48 H         -0.955728   1.903317   -0.12604 H        1 UNL1     0.2101
     49 H         0.499474   -1.919963   -0.862802 H        1 UNL1     0.2100
     50 H         -2.06428   0.535247   -3.395805 H        1 UNL1     0.2102
@<TRIPOS>BOND
     1     1     2    1
     2     1     6    1
     3     2     3    1
     4     3     4    1
     5     3    29    1
     6     3    33    1
     7     4     5    1
     8     5     6    1
     9     5     7    1
    10     5    35    1
    11     7     8    1
    12     8     9   ar
    13     8    13   ar
    14     9    10   ar
    15     9    36    1
    16    10    11   ar
    17    10    26    1
    18    11    12   ar
    19    11    14    1
    20    12    13   ar
    21    12    17    1
    22    13    37    1
    23    14    15    1
    24    14    25    2
    25    15    16    1
    26    15    38    1
    27    15    39    1
    28    16    17    1
    29    16    18    1
    30    16    40    1
    31    18    19   ar
    32    18    23   ar
    33    19    20   ar
    34    19    41    1
    35    20    21   ar
    36    20    42    1
    37    21    22   ar
    38    21    24    1
    39    22    23   ar
    40    22    43    1
    41    23    44    1
    42    24    45    1
    43    26    46    1
    44    27    47    1
    45    28    48    1
    46    29    49    1
    47    30    50    1
    48     1    31    1
    49     1    27    1
    50     2    32    1
    51     2    28    1
    52     4    34    1
    53     4    30    1
