@<TRIPOS>MOLECULE
*****
 50 53 0 0 0
SMALL
GASTEIGER

@<TRIPOS>ATOM
     1 C         -0.337126   -1.358138   1.677084 C.3        1 UNL1     0.1889
     2 C         -0.464658   -0.977847   0.177399 C.3        1 UNL1     0.1342
     3 C         -1.904669   -0.952829   -0.357586 C.3        1 UNL1     0.1174
     4 C         -2.794029   -2.022057   0.281873 C.3        1 UNL1     0.1456
     5 C         -2.644748   -2.075317   1.813291 C.3        1 UNL1     0.2326
     6 O         -1.280806   -2.30238   2.161101 O.3        1 UNL1     -0.3076
     7 O         -3.218395   -0.939073   2.485004 O.3        1 UNL1     -0.4605
     8 C         -3.74084   -1.178804   3.74322 C.ar        1 UNL1     0.1310
     9 C         -4.799432   -2.047716   4.029012 C.ar        1 UNL1     0.0226
     10 C         -5.24664   -2.236268   5.342159 C.ar        1 UNL1     0.1343
     11 C         -4.629856   -1.5779   6.40516 C.ar        1 UNL1     0.1007
     12 C         -3.598678   -0.676461   6.127918 C.ar        1 UNL1     0.1389
     13 C         -3.15094   -0.485044   4.807191 C.ar        1 UNL1     0.0229
     14 C         -5.006497   -1.803786   7.819823 C.2        1 UNL1     0.1740
     15 C         -4.095836   -1.187114   8.840588 C.3        1 UNL1     0.0520
     16 C         -3.686974   0.194694   8.349267 C.3        1 UNL1     0.1322
     17 O         -2.993902   0.105039   7.084877 O.3        1 UNL1     -0.4828
     18 C         -4.822873   1.220165   8.37872 C.ar        1 UNL1     -0.0067
     19 C         -4.536102   2.578563   8.132284 C.ar        1 UNL1     -0.0516
     20 C         -5.543232   3.548769   8.198247 C.ar        1 UNL1     -0.0198
     21 C         -6.836756   3.175211   8.516174 C.ar        1 UNL1     0.1169
     22 C         -7.156776   1.840973   8.7312 C.ar        1 UNL1     -0.0198
     23 C         -6.15345   0.868178   8.647164 C.ar        1 UNL1     -0.0516
     24 O         -7.783563   4.152682   8.608408 O.3        1 UNL1     -0.5068
     25 O         -5.949528   -2.511557   8.16368 O.2        1 UNL1     -0.2917
     26 O         -6.284243   -3.096723   5.553302 O.3        1 UNL1     -0.5058
     27 O         -0.230826   -0.235467   2.537953 O.3        1 UNL1     -0.3648
     28 O         0.265075   -1.943824   -0.601757 O.3        1 UNL1     -0.3841
     29 O         -2.459628   0.360314   -0.258552 O.3        1 UNL1     -0.3863
     30 O         -2.448272   -3.313915   -0.263329 O.3        1 UNL1     -0.3829
     31 H         0.622347   -1.874987   1.788249 H        1 UNL1     0.0937
     32 H         0.0   0.0   0.0 H        1 UNL1     0.0671
     33 H         -1.866534   -1.17308   -1.433576 H        1 UNL1     0.0649
     34 H         -3.843415   -1.837021   0.027013 H        1 UNL1     0.0683
     35 H         -3.201687   -2.975443   2.102208 H        1 UNL1     0.1085
     36 H         -5.283605   -2.631029   3.253484 H        1 UNL1     0.0691
     37 H         -2.347196   0.223187   4.617724 H        1 UNL1     0.0691
     38 H         -3.224709   -1.842487   8.946186 H        1 UNL1     0.0385
     39 H         -4.61286   -1.147278   9.805408 H        1 UNL1     0.0385
     40 H         -2.932098   0.577016   9.049633 H        1 UNL1     0.0789
     41 H         -3.52693   2.898564   7.889752 H        1 UNL1     0.0623
     42 H         -5.307172   4.594592   8.017854 H        1 UNL1     0.0654
     43 H         -8.169431   1.535542   8.966048 H        1 UNL1     0.0654
     44 H         -6.441172   -0.165907   8.810656 H        1 UNL1     0.0623
     45 H         -7.334522   5.002804   8.743946 H        1 UNL1     0.2921
     46 H         -6.084476   -3.663726   6.314887 H        1 UNL1     0.2922
     47 H         -1.110381   0.066603   2.804406 H        1 UNL1     0.2126
     48 H         -0.287323   -2.150033   -1.38026 H        1 UNL1     0.2101
     49 H         -3.009136   0.427103   0.538552 H        1 UNL1     0.2100
     50 H         -1.901687   -3.784477   0.399641 H        1 UNL1     0.2102
@<TRIPOS>BOND
     1     1     2    1
     2     1     6    1
     3     2     3    1
     4     3     4    1
     5     3    29    1
     6     3    33    1
     7     4     5    1
     8     5     6    1
     9     5     7    1
    10     5    35    1
    11     7     8    1
    12     8     9   ar
    13     8    13   ar
    14     9    10   ar
    15     9    36    1
    16    10    11   ar
    17    10    26    1
    18    11    12   ar
    19    11    14    1
    20    12    13   ar
    21    12    17    1
    22    13    37    1
    23    14    15    1
    24    14    25    2
    25    15    16    1
    26    15    38    1
    27    15    39    1
    28    16    17    1
    29    16    18    1
    30    16    40    1
    31    18    19   ar
    32    18    23   ar
    33    19    20   ar
    34    19    41    1
    35    20    21   ar
    36    20    42    1
    37    21    22   ar
    38    21    24    1
    39    22    23   ar
    40    22    43    1
    41    23    44    1
    42    24    45    1
    43    26    46    1
    44    27    47    1
    45    28    48    1
    46    29    49    1
    47    30    50    1
    48     1    31    1
    49     1    27    1
    50     2    32    1
    51     2    28    1
    52     4    34    1
    53     4    30    1
