@<TRIPOS>MOLECULE
*****
 50 53 0 0 0
SMALL
GASTEIGER

@<TRIPOS>ATOM
     1 C         -0.253676   -1.395757   1.660818 C.3        1 UNL1     0.1889
     2 C         -0.444692   -0.987461   0.175305 C.3        1 UNL1     0.1342
     3 C         -1.904736   -0.97153   -0.302694 C.3        1 UNL1     0.1174
     4 C         -2.754509   -2.065367   0.348862 C.3        1 UNL1     0.1456
     5 C         -2.544745   -2.147061   1.871914 C.3        1 UNL1     0.2326
     6 O         -1.165418   -2.362292   2.161747 O.3        1 UNL1     -0.3076
     7 O         -3.106297   -1.032385   2.588487 O.3        1 UNL1     -0.4605
     8 C         -3.565645   -1.301812   3.865177 C.ar        1 UNL1     0.1310
     9 C         -4.356358   -2.397641   4.227435 C.ar        1 UNL1     0.0226
     10 C         -4.757898   -2.59328   5.554234 C.ar        1 UNL1     0.1343
     11 C         -4.358197   -1.709873   6.556069 C.ar        1 UNL1     0.1007
     12 C         -3.602766   -0.589516   6.199829 C.ar        1 UNL1     0.1389
     13 C         -3.201362   -0.391595   4.865238 C.ar        1 UNL1     0.0229
     14 C         -4.683405   -1.91418   7.986681 C.2        1 UNL1     0.1740
     15 C         -3.988781   -0.995096   8.948102 C.3        1 UNL1     0.0520
     16 C         -3.958263   0.40157   8.342834 C.3        1 UNL1     0.1322
     17 O         -3.245979   0.400299   7.085964 O.3        1 UNL1     -0.4828
     18 C         -5.328258   1.082407   8.294895 C.ar        1 UNL1     -0.0067
     19 C         -5.758209   1.689824   7.09723 C.ar        1 UNL1     -0.0516
     20 C         -6.984623   2.361914   7.032674 C.ar        1 UNL1     -0.0198
     21 C         -7.785032   2.439771   8.158334 C.ar        1 UNL1     0.1169
     22 C         -7.404262   1.822979   9.342994 C.ar        1 UNL1     -0.0198
     23 C         -6.186386   1.135033   9.402704 C.ar        1 UNL1     -0.0516
     24 O         -8.95504   3.134981   8.067974 O.3        1 UNL1     -0.5068
     25 O         -5.407074   -2.819582   8.392926 O.2        1 UNL1     -0.2917
     26 O         -5.529447   -3.681352   5.841278 O.3        1 UNL1     -0.5058
     27 O         -0.128282   -0.289099   2.539665 O.3        1 UNL1     -0.3648
     28 O         0.266411   -1.92764   -0.651194 O.3        1 UNL1     -0.3841
     29 O         -2.47231   0.331652   -0.15536 O.3        1 UNL1     -0.3863
     30 O         -2.413692   -3.341252   -0.235646 O.3        1 UNL1     -0.3829
     31 H         0.716008   -1.90152   1.72403 H        1 UNL1     0.0937
     32 H         0.0   0.0   0.0 H        1 UNL1     0.0671
     33 H         -1.905891   -1.169769   -1.383629 H        1 UNL1     0.0649
     34 H         -3.815366   -1.889691   0.138808 H        1 UNL1     0.0683
     35 H         -3.078279   -3.060308   2.163804 H        1 UNL1     0.1085
     36 H         -4.653219   -3.150189   3.50517 H        1 UNL1     0.0691
     37 H         -2.61449   0.489187   4.613648 H        1 UNL1     0.0691
     38 H         -2.975441   -1.381128   9.101883 H        1 UNL1     0.0385
     39 H         -4.513223   -1.018366   9.909454 H        1 UNL1     0.0385
     40 H         -3.345454   1.028028   9.005055 H        1 UNL1     0.0789
     41 H         -5.143963   1.650617   6.202348 H        1 UNL1     0.0623
     42 H         -7.299607   2.836456   6.106603 H        1 UNL1     0.0654
     43 H         -8.030373   1.864915   10.226248 H        1 UNL1     0.0654
     44 H         -5.925362   0.655939   10.341416 H        1 UNL1     0.0623
     45 H         -8.74775   4.056139   7.841665 H        1 UNL1     0.2921
     46 H         -5.094247   -4.215381   6.524525 H        1 UNL1     0.2922
     47 H         0.59616   0.284882   2.254028 H        1 UNL1     0.2126
     48 H         1.209334   -1.857577   -0.406818 H        1 UNL1     0.2101
     49 H         -2.064118   0.94295   -0.788991 H        1 UNL1     0.2100
     50 H         -2.682641   -3.322904   -1.177475 H        1 UNL1     0.2102
@<TRIPOS>BOND
     1     1     2    1
     2     1     6    1
     3     2     3    1
     4     3     4    1
     5     3    29    1
     6     3    33    1
     7     4     5    1
     8     5     6    1
     9     5     7    1
    10     5    35    1
    11     7     8    1
    12     8     9   ar
    13     8    13   ar
    14     9    10   ar
    15     9    36    1
    16    10    11   ar
    17    10    26    1
    18    11    12   ar
    19    11    14    1
    20    12    13   ar
    21    12    17    1
    22    13    37    1
    23    14    15    1
    24    14    25    2
    25    15    16    1
    26    15    38    1
    27    15    39    1
    28    16    17    1
    29    16    18    1
    30    16    40    1
    31    18    19   ar
    32    18    23   ar
    33    19    20   ar
    34    19    41    1
    35    20    21   ar
    36    20    42    1
    37    21    22   ar
    38    21    24    1
    39    22    23   ar
    40    22    43    1
    41    23    44    1
    42    24    45    1
    43    26    46    1
    44    27    47    1
    45    28    48    1
    46    29    49    1
    47    30    50    1
    48     1    31    1
    49     1    27    1
    50     2    32    1
    51     2    28    1
    52     4    34    1
    53     4    30    1
