@<TRIPOS>MOLECULE
*****
 50 53 0 0 0
SMALL
GASTEIGER

@<TRIPOS>ATOM
     1 C         -0.385082   -1.351522   1.672096 C.3        1 UNL1     0.1889
     2 C         -0.490117   -0.966329   0.171918 C.3        1 UNL1     0.1342
     3 C         -1.92435   -0.905188   -0.375533 C.3        1 UNL1     0.1174
     4 C         -2.845308   -1.952989   0.254598 C.3        1 UNL1     0.1456
     5 C         -2.710759   -2.011826   1.787177 C.3        1 UNL1     0.2326
     6 O         -1.355907   -2.272843   2.146503 O.3        1 UNL1     -0.3076
     7 O         -3.262107   -0.862641   2.455541 O.3        1 UNL1     -0.4605
     8 C         -3.790635   -1.088773   3.713734 C.ar        1 UNL1     0.1310
     9 C         -4.638809   -2.146709   4.058222 C.ar        1 UNL1     0.0226
     10 C         -5.109152   -2.300264   5.36784 C.ar        1 UNL1     0.1343
     11 C         -4.723201   -1.41229   6.371027 C.ar        1 UNL1     0.1007
     12 C         -3.909587   -0.328407   6.03042 C.ar        1 UNL1     0.1389
     13 C         -3.438927   -0.172724   4.712971 C.ar        1 UNL1     0.0229
     14 C         -5.122539   -1.575255   7.788111 C.2        1 UNL1     0.1740
     15 C         -4.438947   -0.663479   8.764285 C.3        1 UNL1     0.0520
     16 C         -4.326694   0.718513   8.135433 C.3        1 UNL1     0.1322
     17 O         -3.556985   0.665139   6.914053 O.3        1 UNL1     -0.4828
     18 C         -5.665869   1.448975   8.009899 C.ar        1 UNL1     -0.0067
     19 C         -6.017002   2.04523   6.781323 C.ar        1 UNL1     -0.0516
     20 C         -7.212429   2.761202   6.646045 C.ar        1 UNL1     -0.0198
     21 C         -8.059817   2.894073   7.731451 C.ar        1 UNL1     0.1169
     22 C         -7.757545   2.290005   8.944947 C.ar        1 UNL1     -0.0198
     23 C         -6.571029   1.558403   9.075313 C.ar        1 UNL1     -0.0516
     24 O         -9.196872   3.630454   7.572551 O.3        1 UNL1     -0.5068
     25 O         -5.898556   -2.444551   8.176192 O.2        1 UNL1     -0.2917
     26 O         -5.934383   -3.352692   5.637979 O.3        1 UNL1     -0.5058
     27 O         -0.258701   -0.232886   2.535502 O.3        1 UNL1     -0.3648
     28 O         0.222393   -1.949007   -0.602277 O.3        1 UNL1     -0.3841
     29 O         -2.447663   0.421099   -0.279405 O.3        1 UNL1     -0.3863
     30 O         -2.526706   -3.252287   -0.289469 O.3        1 UNL1     -0.3829
     31 H         0.560371   -1.89198   1.790843 H        1 UNL1     0.0937
     32 H         0.0   0.0   0.0 H        1 UNL1     0.0671
     33 H         -1.882256   -1.124965   -1.451473 H        1 UNL1     0.0649
     34 H         -3.887556   -1.74185   -0.009106 H        1 UNL1     0.0683
     35 H         -3.292185   -2.898324   2.06992 H        1 UNL1     0.1085
     36 H         -4.93017   -2.90212   3.336707 H        1 UNL1     0.0691
     37 H         -2.807633   0.680223   4.473301 H        1 UNL1     0.0691
     38 H         -3.449435   -1.083925   8.973133 H        1 UNL1     0.0385
     39 H         -5.008279   -0.647635   9.699907 H        1 UNL1     0.0385
     40 H         -3.721983   1.33492   8.81432 H        1 UNL1     0.0789
     41 H         -5.364496   1.963094   5.91695 H        1 UNL1     0.0623
     42 H         -7.466312   3.226454   5.696784 H        1 UNL1     0.0654
     43 H         -8.421258   2.375053   9.797099 H        1 UNL1     0.0654
     44 H         -6.371762   1.090908   10.034785 H        1 UNL1     0.0623
     45 H         -8.944327   4.536525   7.331774 H        1 UNL1     0.2921
     46 H         -5.551701   -3.889433   6.349931 H        1 UNL1     0.2922
     47 H         0.501569   0.306118   2.276036 H        1 UNL1     0.2126
     48 H         1.153676   -1.913465   -0.310419 H        1 UNL1     0.2101
     49 H         -1.986763   1.003788   -0.903776 H        1 UNL1     0.2100
     50 H         -2.750124   -3.242813   -1.243255 H        1 UNL1     0.2102
@<TRIPOS>BOND
     1     1     2    1
     2     1     6    1
     3     2     3    1
     4     3     4    1
     5     3    29    1
     6     3    33    1
     7     4     5    1
     8     5     6    1
     9     5     7    1
    10     5    35    1
    11     7     8    1
    12     8     9   ar
    13     8    13   ar
    14     9    10   ar
    15     9    36    1
    16    10    11   ar
    17    10    26    1
    18    11    12   ar
    19    11    14    1
    20    12    13   ar
    21    12    17    1
    22    13    37    1
    23    14    15    1
    24    14    25    2
    25    15    16    1
    26    15    38    1
    27    15    39    1
    28    16    17    1
    29    16    18    1
    30    16    40    1
    31    18    19   ar
    32    18    23   ar
    33    19    20   ar
    34    19    41    1
    35    20    21   ar
    36    20    42    1
    37    21    22   ar
    38    21    24    1
    39    22    23   ar
    40    22    43    1
    41    23    44    1
    42    24    45    1
    43    26    46    1
    44    27    47    1
    45    28    48    1
    46    29    49    1
    47    30    50    1
    48     1    31    1
    49     1    27    1
    50     2    32    1
    51     2    28    1
    52     4    34    1
    53     4    30    1
